data_image0
_cell_length_a       16.986
_cell_length_b       16.986
_cell_length_c       16.986
_cell_angle_alpha    90
_cell_angle_beta     90
_cell_angle_gamma    90

_symmetry_space_group_name_H-M    "P 1"
_symmetry_int_tables_number       1

loop_
  _symmetry_equiv_pos_as_xyz
  'x, y, z'

loop_
  _atom_site_label
  _atom_site_occupancy
  _atom_site_fract_x
  _atom_site_fract_y
  _atom_site_fract_z
  _atom_site_thermal_displace_type
  _atom_site_B_iso_or_equiv
  _atom_site_type_symbol
  N1       1.0000 0.59022  0.96843  0.31760  Biso   1.000  N
  C1       1.0000 0.63070  0.89863  0.31391  Biso   1.000  C
  H1       1.0000 0.62100  0.85800  0.27850  Biso   1.000  H
  H2       1.0000 0.55010  0.10200  0.37460  Biso   1.000  H
  H3       1.0000 0.57950  0.08160  0.45970  Biso   1.000  H
  H4       1.0000 0.63600  0.12390  0.40020  Biso   1.000  H
  H5       1.0000 0.57720  0.08110  0.45900  Biso   1.000  H
  H6       1.0000 0.55160  0.10310  0.37310  Biso   1.000  H
  H7       1.0000 0.63670  0.12340  0.40250  Biso   1.000  H
  N2       1.0000 0.09022  0.46843  0.81760  Biso   1.000  N
  C2       1.0000 0.13070  0.39863  0.81391  Biso   1.000  C
  H8       1.0000 0.12100  0.35800  0.77850  Biso   1.000  H
  H9       1.0000 0.05010  0.60200  0.87460  Biso   1.000  H
  H10      1.0000 0.07950  0.58160  0.95970  Biso   1.000  H
  H11      1.0000 0.13600  0.62390  0.90020  Biso   1.000  H
  H12      1.0000 0.07720  0.58110  0.95900  Biso   1.000  H
  H13      1.0000 0.05160  0.60310  0.87310  Biso   1.000  H
  H14      1.0000 0.13670  0.62340  0.90250  Biso   1.000  H
  N3       1.0000 0.40978  0.03157  0.31760  Biso   1.000  N
  C3       1.0000 0.36930  0.10137  0.31391  Biso   1.000  C
  H15      1.0000 0.37900  0.14200  0.27850  Biso   1.000  H
  H16      1.0000 0.44990  0.89800  0.37460  Biso   1.000  H
  H17      1.0000 0.42050  0.91840  0.45970  Biso   1.000  H
  H18      1.0000 0.36400  0.87610  0.40020  Biso   1.000  H
  H19      1.0000 0.42280  0.91890  0.45900  Biso   1.000  H
  H20      1.0000 0.44840  0.89690  0.37310  Biso   1.000  H
  H21      1.0000 0.36330  0.87660  0.40250  Biso   1.000  H
  N4       1.0000 0.90978  0.53157  0.81760  Biso   1.000  N
  C4       1.0000 0.86930  0.60137  0.81391  Biso   1.000  C
  H22      1.0000 0.87900  0.64200  0.77850  Biso   1.000  H
  H23      1.0000 0.94990  0.39800  0.87460  Biso   1.000  H
  H24      1.0000 0.92050  0.41840  0.95970  Biso   1.000  H
  H25      1.0000 0.86400  0.37610  0.90020  Biso   1.000  H
  H26      1.0000 0.92280  0.41890  0.95900  Biso   1.000  H
  H27      1.0000 0.94840  0.39690  0.87310  Biso   1.000  H
  H28      1.0000 0.86330  0.37660  0.90250  Biso   1.000  H
  N5       1.0000 0.40978  0.96843  0.68240  Biso   1.000  N
  C5       1.0000 0.36930  0.89863  0.68609  Biso   1.000  C
  H29      1.0000 0.37900  0.85800  0.72150  Biso   1.000  H
  H30      1.0000 0.44990  0.10200  0.62540  Biso   1.000  H
  H31      1.0000 0.42050  0.08160  0.54030  Biso   1.000  H
  H32      1.0000 0.36400  0.12390  0.59980  Biso   1.000  H
  H33      1.0000 0.42280  0.08110  0.54100  Biso   1.000  H
  H34      1.0000 0.44840  0.10310  0.62690  Biso   1.000  H
  H35      1.0000 0.36330  0.12340  0.59750  Biso   1.000  H
  N6       1.0000 0.90978  0.46843  0.18240  Biso   1.000  N
  C6       1.0000 0.86930  0.39863  0.18609  Biso   1.000  C
  H36      1.0000 0.87900  0.35800  0.22150  Biso   1.000  H
  H37      1.0000 0.94990  0.60200  0.12540  Biso   1.000  H
  H38      1.0000 0.92050  0.58160  0.04030  Biso   1.000  H
  H39      1.0000 0.86400  0.62390  0.09980  Biso   1.000  H
  H40      1.0000 0.92280  0.58110  0.04100  Biso   1.000  H
  H41      1.0000 0.94840  0.60310  0.12690  Biso   1.000  H
  H42      1.0000 0.86330  0.62340  0.09750  Biso   1.000  H
  N7       1.0000 0.59022  0.03157  0.68240  Biso   1.000  N
  C7       1.0000 0.63070  0.10137  0.68609  Biso   1.000  C
  H43      1.0000 0.62100  0.14200  0.72150  Biso   1.000  H
  H44      1.0000 0.55010  0.89800  0.62540  Biso   1.000  H
  H45      1.0000 0.57950  0.91840  0.54030  Biso   1.000  H
  H46      1.0000 0.63600  0.87610  0.59980  Biso   1.000  H
  H47      1.0000 0.57720  0.91890  0.54100  Biso   1.000  H
  H48      1.0000 0.55160  0.89690  0.62690  Biso   1.000  H
  H49      1.0000 0.63670  0.87660  0.59750  Biso   1.000  H
  N8       1.0000 0.09022  0.53157  0.18240  Biso   1.000  N
  C8       1.0000 0.13070  0.60137  0.18609  Biso   1.000  C
  H50      1.0000 0.12100  0.64200  0.22150  Biso   1.000  H
  H51      1.0000 0.05010  0.39800  0.12540  Biso   1.000  H
  H52      1.0000 0.07950  0.41840  0.04030  Biso   1.000  H
  H53      1.0000 0.13600  0.37610  0.09980  Biso   1.000  H
  H54      1.0000 0.07720  0.41890  0.04100  Biso   1.000  H
  H55      1.0000 0.05160  0.39690  0.12690  Biso   1.000  H
  H56      1.0000 0.13670  0.37660  0.09750  Biso   1.000  H
  N9       1.0000 0.31760  0.59022  0.96843  Biso   1.000  N
  C9       1.0000 0.31391  0.63070  0.89863  Biso   1.000  C
  H57      1.0000 0.27850  0.62100  0.85800  Biso   1.000  H
  H58      1.0000 0.37460  0.55010  0.10200  Biso   1.000  H
  H59      1.0000 0.45970  0.57950  0.08160  Biso   1.000  H
  H60      1.0000 0.40020  0.63600  0.12390  Biso   1.000  H
  H61      1.0000 0.45900  0.57720  0.08110  Biso   1.000  H
  H62      1.0000 0.37310  0.55160  0.10310  Biso   1.000  H
  H63      1.0000 0.40250  0.63670  0.12340  Biso   1.000  H
  N10      1.0000 0.81760  0.09022  0.46843  Biso   1.000  N
  C10      1.0000 0.81391  0.13070  0.39863  Biso   1.000  C
  H64      1.0000 0.77850  0.12100  0.35800  Biso   1.000  H
  H65      1.0000 0.87460  0.05010  0.60200  Biso   1.000  H
  H66      1.0000 0.95970  0.07950  0.58160  Biso   1.000  H
  H67      1.0000 0.90020  0.13600  0.62390  Biso   1.000  H
  H68      1.0000 0.95900  0.07720  0.58110  Biso   1.000  H
  H69      1.0000 0.87310  0.05160  0.60310  Biso   1.000  H
  H70      1.0000 0.90250  0.13670  0.62340  Biso   1.000  H
  N11      1.0000 0.31760  0.40978  0.03157  Biso   1.000  N
  C11      1.0000 0.31391  0.36930  0.10137  Biso   1.000  C
  H71      1.0000 0.27850  0.37900  0.14200  Biso   1.000  H
  H72      1.0000 0.37460  0.44990  0.89800  Biso   1.000  H
  H73      1.0000 0.45970  0.42050  0.91840  Biso   1.000  H
  H74      1.0000 0.40020  0.36400  0.87610  Biso   1.000  H
  H75      1.0000 0.45900  0.42280  0.91890  Biso   1.000  H
  H76      1.0000 0.37310  0.44840  0.89690  Biso   1.000  H
  H77      1.0000 0.40250  0.36330  0.87660  Biso   1.000  H
  N12      1.0000 0.81760  0.90978  0.53157  Biso   1.000  N
  C12      1.0000 0.81391  0.86930  0.60137  Biso   1.000  C
  H78      1.0000 0.77850  0.87900  0.64200  Biso   1.000  H
  H79      1.0000 0.87460  0.94990  0.39800  Biso   1.000  H
  H80      1.0000 0.95970  0.92050  0.41840  Biso   1.000  H
  H81      1.0000 0.90020  0.86400  0.37610  Biso   1.000  H
  H82      1.0000 0.95900  0.92280  0.41890  Biso   1.000  H
  H83      1.0000 0.87310  0.94840  0.39690  Biso   1.000  H
  H84      1.0000 0.90250  0.86330  0.37660  Biso   1.000  H
  N13      1.0000 0.68240  0.40978  0.96843  Biso   1.000  N
  C13      1.0000 0.68609  0.36930  0.89863  Biso   1.000  C
  H85      1.0000 0.72150  0.37900  0.85800  Biso   1.000  H
  H86      1.0000 0.62540  0.44990  0.10200  Biso   1.000  H
  H87      1.0000 0.54030  0.42050  0.08160  Biso   1.000  H
  H88      1.0000 0.59980  0.36400  0.12390  Biso   1.000  H
  H89      1.0000 0.54100  0.42280  0.08110  Biso   1.000  H
  H90      1.0000 0.62690  0.44840  0.10310  Biso   1.000  H
  H91      1.0000 0.59750  0.36330  0.12340  Biso   1.000  H
  N14      1.0000 0.18240  0.90978  0.46843  Biso   1.000  N
  C14      1.0000 0.18609  0.86930  0.39863  Biso   1.000  C
  H92      1.0000 0.22150  0.87900  0.35800  Biso   1.000  H
  H93      1.0000 0.12540  0.94990  0.60200  Biso   1.000  H
  H94      1.0000 0.04030  0.92050  0.58160  Biso   1.000  H
  H95      1.0000 0.09980  0.86400  0.62390  Biso   1.000  H
  H96      1.0000 0.04100  0.92280  0.58110  Biso   1.000  H
  H97      1.0000 0.12690  0.94840  0.60310  Biso   1.000  H
  H98      1.0000 0.09750  0.86330  0.62340  Biso   1.000  H
  N15      1.0000 0.68240  0.59022  0.03157  Biso   1.000  N
  C15      1.0000 0.68609  0.63070  0.10137  Biso   1.000  C
  H99      1.0000 0.72150  0.62100  0.14200  Biso   1.000  H
  H100     1.0000 0.62540  0.55010  0.89800  Biso   1.000  H
  H101     1.0000 0.54030  0.57950  0.91840  Biso   1.000  H
  H102     1.0000 0.59980  0.63600  0.87610  Biso   1.000  H
  H103     1.0000 0.54100  0.57720  0.91890  Biso   1.000  H
  H104     1.0000 0.62690  0.55160  0.89690  Biso   1.000  H
  H105     1.0000 0.59750  0.63670  0.87660  Biso   1.000  H
  N16      1.0000 0.18240  0.09022  0.53157  Biso   1.000  N
  C16      1.0000 0.18609  0.13070  0.60137  Biso   1.000  C
  H106     1.0000 0.22150  0.12100  0.64200  Biso   1.000  H
  H107     1.0000 0.12540  0.05010  0.39800  Biso   1.000  H
  H108     1.0000 0.04030  0.07950  0.41840  Biso   1.000  H
  H109     1.0000 0.09980  0.13600  0.37610  Biso   1.000  H
  H110     1.0000 0.04100  0.07720  0.41890  Biso   1.000  H
  H111     1.0000 0.12690  0.05160  0.39690  Biso   1.000  H
  H112     1.0000 0.09750  0.13670  0.37660  Biso   1.000  H
  N17      1.0000 0.96843  0.31760  0.59022  Biso   1.000  N
  C17      1.0000 0.89863  0.31391  0.63070  Biso   1.000  C
  H113     1.0000 0.85800  0.27850  0.62100  Biso   1.000  H
  H114     1.0000 0.10200  0.37460  0.55010  Biso   1.000  H
  H115     1.0000 0.08160  0.45970  0.57950  Biso   1.000  H
  H116     1.0000 0.12390  0.40020  0.63600  Biso   1.000  H
  H117     1.0000 0.08110  0.45900  0.57720  Biso   1.000  H
  H118     1.0000 0.10310  0.37310  0.55160  Biso   1.000  H
  H119     1.0000 0.12340  0.40250  0.63670  Biso   1.000  H
  N18      1.0000 0.46843  0.81760  0.09022  Biso   1.000  N
  C18      1.0000 0.39863  0.81391  0.13070  Biso   1.000  C
  H120     1.0000 0.35800  0.77850  0.12100  Biso   1.000  H
  H121     1.0000 0.60200  0.87460  0.05010  Biso   1.000  H
  H122     1.0000 0.58160  0.95970  0.07950  Biso   1.000  H
  H123     1.0000 0.62390  0.90020  0.13600  Biso   1.000  H
  H124     1.0000 0.58110  0.95900  0.07720  Biso   1.000  H
  H125     1.0000 0.60310  0.87310  0.05160  Biso   1.000  H
  H126     1.0000 0.62340  0.90250  0.13670  Biso   1.000  H
  N19      1.0000 0.03157  0.31760  0.40978  Biso   1.000  N
  C19      1.0000 0.10137  0.31391  0.36930  Biso   1.000  C
  H127     1.0000 0.14200  0.27850  0.37900  Biso   1.000  H
  H128     1.0000 0.89800  0.37460  0.44990  Biso   1.000  H
  H129     1.0000 0.91840  0.45970  0.42050  Biso   1.000  H
  H130     1.0000 0.87610  0.40020  0.36400  Biso   1.000  H
  H131     1.0000 0.91890  0.45900  0.42280  Biso   1.000  H
  H132     1.0000 0.89690  0.37310  0.44840  Biso   1.000  H
  H133     1.0000 0.87660  0.40250  0.36330  Biso   1.000  H
  N20      1.0000 0.53157  0.81760  0.90978  Biso   1.000  N
  C20      1.0000 0.60137  0.81391  0.86930  Biso   1.000  C
  H134     1.0000 0.64200  0.77850  0.87900  Biso   1.000  H
  H135     1.0000 0.39800  0.87460  0.94990  Biso   1.000  H
  H136     1.0000 0.41840  0.95970  0.92050  Biso   1.000  H
  H137     1.0000 0.37610  0.90020  0.86400  Biso   1.000  H
  H138     1.0000 0.41890  0.95900  0.92280  Biso   1.000  H
  H139     1.0000 0.39690  0.87310  0.94840  Biso   1.000  H
  H140     1.0000 0.37660  0.90250  0.86330  Biso   1.000  H
  N21      1.0000 0.96843  0.68240  0.40978  Biso   1.000  N
  C21      1.0000 0.89863  0.68609  0.36930  Biso   1.000  C
  H141     1.0000 0.85800  0.72150  0.37900  Biso   1.000  H
  H142     1.0000 0.10200  0.62540  0.44990  Biso   1.000  H
  H143     1.0000 0.08160  0.54030  0.42050  Biso   1.000  H
  H144     1.0000 0.12390  0.59980  0.36400  Biso   1.000  H
  H145     1.0000 0.08110  0.54100  0.42280  Biso   1.000  H
  H146     1.0000 0.10310  0.62690  0.44840  Biso   1.000  H
  H147     1.0000 0.12340  0.59750  0.36330  Biso   1.000  H
  N22      1.0000 0.46843  0.18240  0.90978  Biso   1.000  N
  C22      1.0000 0.39863  0.18609  0.86930  Biso   1.000  C
  H148     1.0000 0.35800  0.22150  0.87900  Biso   1.000  H
  H149     1.0000 0.60200  0.12540  0.94990  Biso   1.000  H
  H150     1.0000 0.58160  0.04030  0.92050  Biso   1.000  H
  H151     1.0000 0.62390  0.09980  0.86400  Biso   1.000  H
  H152     1.0000 0.58110  0.04100  0.92280  Biso   1.000  H
  H153     1.0000 0.60310  0.12690  0.94840  Biso   1.000  H
  H154     1.0000 0.62340  0.09750  0.86330  Biso   1.000  H
  N23      1.0000 0.03157  0.68240  0.59022  Biso   1.000  N
  C23      1.0000 0.10137  0.68609  0.63070  Biso   1.000  C
  H155     1.0000 0.14200  0.72150  0.62100  Biso   1.000  H
  H156     1.0000 0.89800  0.62540  0.55010  Biso   1.000  H
  H157     1.0000 0.91840  0.54030  0.57950  Biso   1.000  H
  H158     1.0000 0.87610  0.59980  0.63600  Biso   1.000  H
  H159     1.0000 0.91890  0.54100  0.57720  Biso   1.000  H
  H160     1.0000 0.89690  0.62690  0.55160  Biso   1.000  H
  H161     1.0000 0.87660  0.59750  0.63670  Biso   1.000  H
  N24      1.0000 0.53157  0.18240  0.09022  Biso   1.000  N
  C24      1.0000 0.60137  0.18609  0.13070  Biso   1.000  C
  H162     1.0000 0.64200  0.22150  0.12100  Biso   1.000  H
  H163     1.0000 0.39800  0.12540  0.05010  Biso   1.000  H
  H164     1.0000 0.41840  0.04030  0.07950  Biso   1.000  H
  H165     1.0000 0.37610  0.09980  0.13600  Biso   1.000  H
  H166     1.0000 0.41890  0.04100  0.07720  Biso   1.000  H
  H167     1.0000 0.39690  0.12690  0.05160  Biso   1.000  H
  H168     1.0000 0.37660  0.09750  0.13670  Biso   1.000  H
  N25      1.0000 0.96843  0.59022  0.31760  Biso   1.000  N
  C25      1.0000 0.89863  0.63070  0.31391  Biso   1.000  C
  H169     1.0000 0.85800  0.62100  0.27850  Biso   1.000  H
  H170     1.0000 0.10200  0.55010  0.37460  Biso   1.000  H
  H171     1.0000 0.08160  0.57950  0.45970  Biso   1.000  H
  H172     1.0000 0.12390  0.63600  0.40020  Biso   1.000  H
  H173     1.0000 0.08110  0.57720  0.45900  Biso   1.000  H
  H174     1.0000 0.10310  0.55160  0.37310  Biso   1.000  H
  H175     1.0000 0.12340  0.63670  0.40250  Biso   1.000  H
  N26      1.0000 0.46843  0.09022  0.81760  Biso   1.000  N
  C26      1.0000 0.39863  0.13070  0.81391  Biso   1.000  C
  H176     1.0000 0.35800  0.12100  0.77850  Biso   1.000  H
  H177     1.0000 0.60200  0.05010  0.87460  Biso   1.000  H
  H178     1.0000 0.58160  0.07950  0.95970  Biso   1.000  H
  H179     1.0000 0.62390  0.13600  0.90020  Biso   1.000  H
  H180     1.0000 0.58110  0.07720  0.95900  Biso   1.000  H
  H181     1.0000 0.60310  0.05160  0.87310  Biso   1.000  H
  H182     1.0000 0.62340  0.13670  0.90250  Biso   1.000  H
  N27      1.0000 0.03157  0.40978  0.31760  Biso   1.000  N
  C27      1.0000 0.10137  0.36930  0.31391  Biso   1.000  C
  H183     1.0000 0.14200  0.37900  0.27850  Biso   1.000  H
  H184     1.0000 0.89800  0.44990  0.37460  Biso   1.000  H
  H185     1.0000 0.91840  0.42050  0.45970  Biso   1.000  H
  H186     1.0000 0.87610  0.36400  0.40020  Biso   1.000  H
  H187     1.0000 0.91890  0.42280  0.45900  Biso   1.000  H
  H188     1.0000 0.89690  0.44840  0.37310  Biso   1.000  H
  H189     1.0000 0.87660  0.36330  0.40250  Biso   1.000  H
  N28      1.0000 0.53157  0.90978  0.81760  Biso   1.000  N
  C28      1.0000 0.60137  0.86930  0.81391  Biso   1.000  C
  H190     1.0000 0.64200  0.87900  0.77850  Biso   1.000  H
  H191     1.0000 0.39800  0.94990  0.87460  Biso   1.000  H
  H192     1.0000 0.41840  0.92050  0.95970  Biso   1.000  H
  H193     1.0000 0.37610  0.86400  0.90020  Biso   1.000  H
  H194     1.0000 0.41890  0.92280  0.95900  Biso   1.000  H
  H195     1.0000 0.39690  0.94840  0.87310  Biso   1.000  H
  H196     1.0000 0.37660  0.86330  0.90250  Biso   1.000  H
  N29      1.0000 0.96843  0.40978  0.68240  Biso   1.000  N
  C29      1.0000 0.89863  0.36930  0.68609  Biso   1.000  C
  H197     1.0000 0.85800  0.37900  0.72150  Biso   1.000  H
  H198     1.0000 0.10200  0.44990  0.62540  Biso   1.000  H
  H199     1.0000 0.08160  0.42050  0.54030  Biso   1.000  H
  H200     1.0000 0.12390  0.36400  0.59980  Biso   1.000  H
  H201     1.0000 0.08110  0.42280  0.54100  Biso   1.000  H
  H202     1.0000 0.10310  0.44840  0.62690  Biso   1.000  H
  H203     1.0000 0.12340  0.36330  0.59750  Biso   1.000  H
  N30      1.0000 0.46843  0.90978  0.18240  Biso   1.000  N
  C30      1.0000 0.39863  0.86930  0.18609  Biso   1.000  C
  H204     1.0000 0.35800  0.87900  0.22150  Biso   1.000  H
  H205     1.0000 0.60200  0.94990  0.12540  Biso   1.000  H
  H206     1.0000 0.58160  0.92050  0.04030  Biso   1.000  H
  H207     1.0000 0.62390  0.86400  0.09980  Biso   1.000  H
  H208     1.0000 0.58110  0.92280  0.04100  Biso   1.000  H
  H209     1.0000 0.60310  0.94840  0.12690  Biso   1.000  H
  H210     1.0000 0.62340  0.86330  0.09750  Biso   1.000  H
  N31      1.0000 0.03157  0.59022  0.68240  Biso   1.000  N
  C31      1.0000 0.10137  0.63070  0.68609  Biso   1.000  C
  H211     1.0000 0.14200  0.62100  0.72150  Biso   1.000  H
  H212     1.0000 0.89800  0.55010  0.62540  Biso   1.000  H
  H213     1.0000 0.91840  0.57950  0.54030  Biso   1.000  H
  H214     1.0000 0.87610  0.63600  0.59980  Biso   1.000  H
  H215     1.0000 0.91890  0.57720  0.54100  Biso   1.000  H
  H216     1.0000 0.89690  0.55160  0.62690  Biso   1.000  H
  H217     1.0000 0.87660  0.63670  0.59750  Biso   1.000  H
  N32      1.0000 0.53157  0.09022  0.18240  Biso   1.000  N
  C32      1.0000 0.60137  0.13070  0.18609  Biso   1.000  C
  H218     1.0000 0.64200  0.12100  0.22150  Biso   1.000  H
  H219     1.0000 0.39800  0.05010  0.12540  Biso   1.000  H
  H220     1.0000 0.41840  0.07950  0.04030  Biso   1.000  H
  H221     1.0000 0.37610  0.13600  0.09980  Biso   1.000  H
  H222     1.0000 0.41890  0.07720  0.04100  Biso   1.000  H
  H223     1.0000 0.39690  0.05160  0.12690  Biso   1.000  H
  H224     1.0000 0.37660  0.13670  0.09750  Biso   1.000  H
  N33      1.0000 0.59022  0.31760  0.96843  Biso   1.000  N
  C33      1.0000 0.63070  0.31391  0.89863  Biso   1.000  C
  H225     1.0000 0.62100  0.27850  0.85800  Biso   1.000  H
  H226     1.0000 0.55010  0.37460  0.10200  Biso   1.000  H
  H227     1.0000 0.57950  0.45970  0.08160  Biso   1.000  H
  H228     1.0000 0.63600  0.40020  0.12390  Biso   1.000  H
  H229     1.0000 0.57720  0.45900  0.08110  Biso   1.000  H
  H230     1.0000 0.55160  0.37310  0.10310  Biso   1.000  H
  H231     1.0000 0.63670  0.40250  0.12340  Biso   1.000  H
  N34      1.0000 0.09022  0.81760  0.46843  Biso   1.000  N
  C34      1.0000 0.13070  0.81391  0.39863  Biso   1.000  C
  H232     1.0000 0.12100  0.77850  0.35800  Biso   1.000  H
  H233     1.0000 0.05010  0.87460  0.60200  Biso   1.000  H
  H234     1.0000 0.07950  0.95970  0.58160  Biso   1.000  H
  H235     1.0000 0.13600  0.90020  0.62390  Biso   1.000  H
  H236     1.0000 0.07720  0.95900  0.58110  Biso   1.000  H
  H237     1.0000 0.05160  0.87310  0.60310  Biso   1.000  H
  H238     1.0000 0.13670  0.90250  0.62340  Biso   1.000  H
  N35      1.0000 0.40978  0.31760  0.03157  Biso   1.000  N
  C35      1.0000 0.36930  0.31391  0.10137  Biso   1.000  C
  H239     1.0000 0.37900  0.27850  0.14200  Biso   1.000  H
  H240     1.0000 0.44990  0.37460  0.89800  Biso   1.000  H
  H241     1.0000 0.42050  0.45970  0.91840  Biso   1.000  H
  H242     1.0000 0.36400  0.40020  0.87610  Biso   1.000  H
  H243     1.0000 0.42280  0.45900  0.91890  Biso   1.000  H
  H244     1.0000 0.44840  0.37310  0.89690  Biso   1.000  H
  H245     1.0000 0.36330  0.40250  0.87660  Biso   1.000  H
  N36      1.0000 0.90978  0.81760  0.53157  Biso   1.000  N
  C36      1.0000 0.86930  0.81391  0.60137  Biso   1.000  C
  H246     1.0000 0.87900  0.77850  0.64200  Biso   1.000  H
  H247     1.0000 0.94990  0.87460  0.39800  Biso   1.000  H
  H248     1.0000 0.92050  0.95970  0.41840  Biso   1.000  H
  H249     1.0000 0.86400  0.90020  0.37610  Biso   1.000  H
  H250     1.0000 0.92280  0.95900  0.41890  Biso   1.000  H
  H251     1.0000 0.94840  0.87310  0.39690  Biso   1.000  H
  H252     1.0000 0.86330  0.90250  0.37660  Biso   1.000  H
  N37      1.0000 0.40978  0.68240  0.96843  Biso   1.000  N
  C37      1.0000 0.36930  0.68609  0.89863  Biso   1.000  C
  H253     1.0000 0.37900  0.72150  0.85800  Biso   1.000  H
  H254     1.0000 0.44990  0.62540  0.10200  Biso   1.000  H
  H255     1.0000 0.42050  0.54030  0.08160  Biso   1.000  H
  H256     1.0000 0.36400  0.59980  0.12390  Biso   1.000  H
  H257     1.0000 0.42280  0.54100  0.08110  Biso   1.000  H
  H258     1.0000 0.44840  0.62690  0.10310  Biso   1.000  H
  H259     1.0000 0.36330  0.59750  0.12340  Biso   1.000  H
  N38      1.0000 0.90978  0.18240  0.46843  Biso   1.000  N
  C38      1.0000 0.86930  0.18609  0.39863  Biso   1.000  C
  H260     1.0000 0.87900  0.22150  0.35800  Biso   1.000  H
  H261     1.0000 0.94990  0.12540  0.60200  Biso   1.000  H
  H262     1.0000 0.92050  0.04030  0.58160  Biso   1.000  H
  H263     1.0000 0.86400  0.09980  0.62390  Biso   1.000  H
  H264     1.0000 0.92280  0.04100  0.58110  Biso   1.000  H
  H265     1.0000 0.94840  0.12690  0.60310  Biso   1.000  H
  H266     1.0000 0.86330  0.09750  0.62340  Biso   1.000  H
  N39      1.0000 0.59022  0.68240  0.03157  Biso   1.000  N
  C39      1.0000 0.63070  0.68609  0.10137  Biso   1.000  C
  H267     1.0000 0.62100  0.72150  0.14200  Biso   1.000  H
  H268     1.0000 0.55010  0.62540  0.89800  Biso   1.000  H
  H269     1.0000 0.57950  0.54030  0.91840  Biso   1.000  H
  H270     1.0000 0.63600  0.59980  0.87610  Biso   1.000  H
  H271     1.0000 0.57720  0.54100  0.91890  Biso   1.000  H
  H272     1.0000 0.55160  0.62690  0.89690  Biso   1.000  H
  H273     1.0000 0.63670  0.59750  0.87660  Biso   1.000  H
  N40      1.0000 0.09022  0.18240  0.53157  Biso   1.000  N
  C40      1.0000 0.13070  0.18609  0.60137  Biso   1.000  C
  H274     1.0000 0.12100  0.22150  0.64200  Biso   1.000  H
  H275     1.0000 0.05010  0.12540  0.39800  Biso   1.000  H
  H276     1.0000 0.07950  0.04030  0.41840  Biso   1.000  H
  H277     1.0000 0.13600  0.09980  0.37610  Biso   1.000  H
  H278     1.0000 0.07720  0.04100  0.41890  Biso   1.000  H
  H279     1.0000 0.05160  0.12690  0.39690  Biso   1.000  H
  H280     1.0000 0.13670  0.09750  0.37660  Biso   1.000  H
  N41      1.0000 0.31760  0.96843  0.59022  Biso   1.000  N
  C41      1.0000 0.31391  0.89863  0.63070  Biso   1.000  C
  H281     1.0000 0.27850  0.85800  0.62100  Biso   1.000  H
  H282     1.0000 0.37460  0.10200  0.55010  Biso   1.000  H
  H283     1.0000 0.45970  0.08160  0.57950  Biso   1.000  H
  H284     1.0000 0.40020  0.12390  0.63600  Biso   1.000  H
  H285     1.0000 0.45900  0.08110  0.57720  Biso   1.000  H
  H286     1.0000 0.37310  0.10310  0.55160  Biso   1.000  H
  H287     1.0000 0.40250  0.12340  0.63670  Biso   1.000  H
  N42      1.0000 0.81760  0.46843  0.09022  Biso   1.000  N
  C42      1.0000 0.81391  0.39863  0.13070  Biso   1.000  C
  H288     1.0000 0.77850  0.35800  0.12100  Biso   1.000  H
  H289     1.0000 0.87460  0.60200  0.05010  Biso   1.000  H
  H290     1.0000 0.95970  0.58160  0.07950  Biso   1.000  H
  H291     1.0000 0.90020  0.62390  0.13600  Biso   1.000  H
  H292     1.0000 0.95900  0.58110  0.07720  Biso   1.000  H
  H293     1.0000 0.87310  0.60310  0.05160  Biso   1.000  H
  H294     1.0000 0.90250  0.62340  0.13670  Biso   1.000  H
  N43      1.0000 0.31760  0.03157  0.40978  Biso   1.000  N
  C43      1.0000 0.31391  0.10137  0.36930  Biso   1.000  C
  H295     1.0000 0.27850  0.14200  0.37900  Biso   1.000  H
  H296     1.0000 0.37460  0.89800  0.44990  Biso   1.000  H
  H297     1.0000 0.45970  0.91840  0.42050  Biso   1.000  H
  H298     1.0000 0.40020  0.87610  0.36400  Biso   1.000  H
  H299     1.0000 0.45900  0.91890  0.42280  Biso   1.000  H
  H300     1.0000 0.37310  0.89690  0.44840  Biso   1.000  H
  H301     1.0000 0.40250  0.87660  0.36330  Biso   1.000  H
  N44      1.0000 0.81760  0.53157  0.90978  Biso   1.000  N
  C44      1.0000 0.81391  0.60137  0.86930  Biso   1.000  C
  H302     1.0000 0.77850  0.64200  0.87900  Biso   1.000  H
  H303     1.0000 0.87460  0.39800  0.94990  Biso   1.000  H
  H304     1.0000 0.95970  0.41840  0.92050  Biso   1.000  H
  H305     1.0000 0.90020  0.37610  0.86400  Biso   1.000  H
  H306     1.0000 0.95900  0.41890  0.92280  Biso   1.000  H
  H307     1.0000 0.87310  0.39690  0.94840  Biso   1.000  H
  H308     1.0000 0.90250  0.37660  0.86330  Biso   1.000  H
  N45      1.0000 0.68240  0.96843  0.40978  Biso   1.000  N
  C45      1.0000 0.68609  0.89863  0.36930  Biso   1.000  C
  H309     1.0000 0.72150  0.85800  0.37900  Biso   1.000  H
  H310     1.0000 0.62540  0.10200  0.44990  Biso   1.000  H
  H311     1.0000 0.54030  0.08160  0.42050  Biso   1.000  H
  H312     1.0000 0.59980  0.12390  0.36400  Biso   1.000  H
  H313     1.0000 0.54100  0.08110  0.42280  Biso   1.000  H
  H314     1.0000 0.62690  0.10310  0.44840  Biso   1.000  H
  H315     1.0000 0.59750  0.12340  0.36330  Biso   1.000  H
  N46      1.0000 0.18240  0.46843  0.90978  Biso   1.000  N
  C46      1.0000 0.18609  0.39863  0.86930  Biso   1.000  C
  H316     1.0000 0.22150  0.35800  0.87900  Biso   1.000  H
  H317     1.0000 0.12540  0.60200  0.94990  Biso   1.000  H
  H318     1.0000 0.04030  0.58160  0.92050  Biso   1.000  H
  H319     1.0000 0.09980  0.62390  0.86400  Biso   1.000  H
  H320     1.0000 0.04100  0.58110  0.92280  Biso   1.000  H
  H321     1.0000 0.12690  0.60310  0.94840  Biso   1.000  H
  H322     1.0000 0.09750  0.62340  0.86330  Biso   1.000  H
  N47      1.0000 0.68240  0.03157  0.59022  Biso   1.000  N
  C47      1.0000 0.68609  0.10137  0.63070  Biso   1.000  C
  H323     1.0000 0.72150  0.14200  0.62100  Biso   1.000  H
  H324     1.0000 0.62540  0.89800  0.55010  Biso   1.000  H
  H325     1.0000 0.54030  0.91840  0.57950  Biso   1.000  H
  H326     1.0000 0.59980  0.87610  0.63600  Biso   1.000  H
  H327     1.0000 0.54100  0.91890  0.57720  Biso   1.000  H
  H328     1.0000 0.62690  0.89690  0.55160  Biso   1.000  H
  H329     1.0000 0.59750  0.87660  0.63670  Biso   1.000  H
  N48      1.0000 0.18240  0.53157  0.09022  Biso   1.000  N
  C48      1.0000 0.18609  0.60137  0.13070  Biso   1.000  C
  H330     1.0000 0.22150  0.64200  0.12100  Biso   1.000  H
  H331     1.0000 0.12540  0.39800  0.05010  Biso   1.000  H
  H332     1.0000 0.04030  0.41840  0.07950  Biso   1.000  H
  H333     1.0000 0.09980  0.37610  0.13600  Biso   1.000  H
  H334     1.0000 0.04100  0.41890  0.07720  Biso   1.000  H
  H335     1.0000 0.12690  0.39690  0.05160  Biso   1.000  H
  H336     1.0000 0.09750  0.37660  0.13670  Biso   1.000  H
  Zn1      1.0000 0.50000  0.00000  0.25000  Biso   1.000  Zn
  Zn2      1.0000 0.50000  0.00000  0.75000  Biso   1.000  Zn
  Zn3      1.0000 0.00000  0.50000  0.25000  Biso   1.000  Zn
  Zn4      1.0000 0.25000  0.50000  0.00000  Biso   1.000  Zn
  Zn5      1.0000 0.75000  0.50000  0.00000  Biso   1.000  Zn
  Zn6      1.0000 0.25000  0.00000  0.50000  Biso   1.000  Zn
  Zn7      1.0000 0.00000  0.25000  0.50000  Biso   1.000  Zn
  Zn8      1.0000 0.00000  0.75000  0.50000  Biso   1.000  Zn
  Zn9      1.0000 0.50000  0.25000  0.00000  Biso   1.000  Zn
  Zn10     1.0000 0.00000  0.50000  0.75000  Biso   1.000  Zn
  Zn11     1.0000 0.50000  0.75000  0.00000  Biso   1.000  Zn
  Zn12     1.0000 0.75000  0.00000  0.50000  Biso   1.000  Zn
  C49      1.0000 0.62300  0.00790  0.37700  Biso   1.000  C
  C50      1.0000 0.59460  0.08580  0.40540  Biso   1.000  C
  C51      1.0000 0.12300  0.50790  0.87700  Biso   1.000  C
  C52      1.0000 0.09460  0.58580  0.90540  Biso   1.000  C
  C53      1.0000 0.37700  0.99210  0.37700  Biso   1.000  C
  C54      1.0000 0.40540  0.91420  0.40540  Biso   1.000  C
  C55      1.0000 0.87700  0.49210  0.87700  Biso   1.000  C
  C56      1.0000 0.90540  0.41420  0.90540  Biso   1.000  C
  C57      1.0000 0.37700  0.00790  0.62300  Biso   1.000  C
  C58      1.0000 0.40540  0.08580  0.59460  Biso   1.000  C
  C59      1.0000 0.87700  0.50790  0.12300  Biso   1.000  C
  C60      1.0000 0.90540  0.58580  0.09460  Biso   1.000  C
  C61      1.0000 0.62300  0.99210  0.62300  Biso   1.000  C
  C62      1.0000 0.59460  0.91420  0.59460  Biso   1.000  C
  C63      1.0000 0.12300  0.49210  0.12300  Biso   1.000  C
  C64      1.0000 0.09460  0.41420  0.09460  Biso   1.000  C
  C65      1.0000 0.37700  0.62300  0.00790  Biso   1.000  C
  C66      1.0000 0.40540  0.59460  0.08580  Biso   1.000  C
  C67      1.0000 0.87700  0.12300  0.50790  Biso   1.000  C
  C68      1.0000 0.90540  0.09460  0.58580  Biso   1.000  C
  C69      1.0000 0.37700  0.37700  0.99210  Biso   1.000  C
  C70      1.0000 0.40540  0.40540  0.91420  Biso   1.000  C
  C71      1.0000 0.87700  0.87700  0.49210  Biso   1.000  C
  C72      1.0000 0.90540  0.90540  0.41420  Biso   1.000  C
  C73      1.0000 0.62300  0.37700  0.00790  Biso   1.000  C
  C74      1.0000 0.59460  0.40540  0.08580  Biso   1.000  C
  C75      1.0000 0.12300  0.87700  0.50790  Biso   1.000  C
  C76      1.0000 0.09460  0.90540  0.58580  Biso   1.000  C
  C77      1.0000 0.62300  0.62300  0.99210  Biso   1.000  C
  C78      1.0000 0.59460  0.59460  0.91420  Biso   1.000  C
  C79      1.0000 0.12300  0.12300  0.49210  Biso   1.000  C
  C80      1.0000 0.09460  0.09460  0.41420  Biso   1.000  C
  C81      1.0000 0.00790  0.37700  0.62300  Biso   1.000  C
  C82      1.0000 0.08580  0.40540  0.59460  Biso   1.000  C
  C83      1.0000 0.50790  0.87700  0.12300  Biso   1.000  C
  C84      1.0000 0.58580  0.90540  0.09460  Biso   1.000  C
  C85      1.0000 0.99210  0.37700  0.37700  Biso   1.000  C
  C86      1.0000 0.91420  0.40540  0.40540  Biso   1.000  C
  C87      1.0000 0.49210  0.87700  0.87700  Biso   1.000  C
  C88      1.0000 0.41420  0.90540  0.90540  Biso   1.000  C
  C89      1.0000 0.00790  0.62300  0.37700  Biso   1.000  C
  C90      1.0000 0.08580  0.59460  0.40540  Biso   1.000  C
  C91      1.0000 0.50790  0.12300  0.87700  Biso   1.000  C
  C92      1.0000 0.58580  0.09460  0.90540  Biso   1.000  C
  C93      1.0000 0.99210  0.62300  0.62300  Biso   1.000  C
  C94      1.0000 0.91420  0.59460  0.59460  Biso   1.000  C
  C95      1.0000 0.49210  0.12300  0.12300  Biso   1.000  C
  C96      1.0000 0.41420  0.09460  0.09460  Biso   1.000  C
