data_image0
_cell_length_a       9.985
_cell_length_b       13.573
_cell_length_c       18.444
_cell_angle_alpha    90
_cell_angle_beta     90
_cell_angle_gamma    90

_symmetry_space_group_name_H-M    "P 1"
_symmetry_int_tables_number       1

loop_
  _symmetry_equiv_pos_as_xyz
  'x, y, z'

loop_
  _atom_site_label
  _atom_site_occupancy
  _atom_site_fract_x
  _atom_site_fract_y
  _atom_site_fract_z
  _atom_site_thermal_displace_type
  _atom_site_B_iso_or_equiv
  _atom_site_type_symbol
  Zn1      1.0000 0.83356  0.41811  0.22618  Biso   1.000  Zn
  Zn2      1.0000 0.67107  0.14032  0.31122  Biso   1.000  Zn
  Zn3      1.0000 0.69176  0.37721  0.54608  Biso   1.000  Zn
  P1       1.0000 0.68350  0.36368  0.36819  Biso   1.000  P
  H1       1.0000 0.58300  0.40800  0.33600  Biso   1.000  H
  P2       1.0000 0.76800  0.21058  0.15344  Biso   1.000  P
  H2       1.0000 0.67300  0.23900  0.10700  Biso   1.000  H
  P3       1.0000 0.59190  0.52201  0.14218  Biso   1.000  P
  H3       1.0000 0.55100  0.43400  0.12400  Biso   1.000  H
  P4       1.0000 0.04580  0.56397  0.15954  Biso   1.000  P
  H4       1.0000 0.01600  0.63800  0.20300  Biso   1.000  H
  O1       1.0000 0.80390  0.40050  0.32980  Biso   1.000  O
  O2       1.0000 0.85510  0.29220  0.18490  Biso   1.000  O
  O3       1.0000 0.70140  0.50890  0.20060  Biso   1.000  O
  O4       1.0000 0.00200  0.48340  0.20950  Biso   1.000  O
  O5       1.0000 0.64370  0.25930  0.36320  Biso   1.000  O
  O6       1.0000 0.69240  0.15160  0.20790  Biso   1.000  O
  O7       1.0000 0.19390  0.55620  0.14600  Biso   1.000  O
  O8       1.0000 0.50540  0.61450  0.16090  Biso   1.000  O
  O9       1.0000 0.52050  0.04350  0.31050  Biso   1.000  O
  O10      1.0000 0.67320  0.39810  0.44350  Biso   1.000  O
  O11      1.0000 0.64060  0.57050  0.07620  Biso   1.000  O
  O12      1.0000 0.96590  0.57160  0.09020  Biso   1.000  O
  O13      1.0000 0.85670  0.14590  0.10670  Biso   1.000  O
  H5       1.0000 0.85000  0.08850  0.12000  Biso   1.000  H
  N1       1.0000 0.70050  0.22400  0.56900  Biso   1.000  N
  N2       1.0000 0.69930  0.04060  0.59470  Biso   1.000  N
  C1       1.0000 0.57190  0.18000  0.54310  Biso   1.000  C
  H6       1.0000 0.56510  0.18670  0.49080  Biso   1.000  H
  H7       1.0000 0.49680  0.21410  0.56500  Biso   1.000  H
  C2       1.0000 0.56900  0.07010  0.56420  Biso   1.000  C
  H8       1.0000 0.49890  0.05890  0.59970  Biso   1.000  H
  H9       1.0000 0.54930  0.03040  0.52180  Biso   1.000  H
  C3       1.0000 0.81330  0.17520  0.53160  Biso   1.000  C
  H10      1.0000 0.89700  0.20080  0.55040  Biso   1.000  H
  H11      1.0000 0.80930  0.19040  0.48020  Biso   1.000  H
  C4       1.0000 0.81000  0.06370  0.54170  Biso   1.000  C
  H12      1.0000 0.79300  0.03140  0.49570  Biso   1.000  H
  H13      1.0000 0.89520  0.04060  0.56030  Biso   1.000  H
  C5       1.0000 0.71690  0.20620  0.64780  Biso   1.000  C
  H14      1.0000 0.64170  0.23400  0.67400  Biso   1.000  H
  H15      1.0000 0.79810  0.23770  0.66500  Biso   1.000  H
  C6       1.0000 0.72470  0.09360  0.66180  Biso   1.000  C
  H16      1.0000 0.81270  0.07660  0.68020  Biso   1.000  H
  H17      1.0000 0.65880  0.07500  0.69790  Biso   1.000  H
  Zn4      1.0000 0.66644  0.58189  0.72618  Biso   1.000  Zn
  Zn5      1.0000 0.82893  0.85968  0.81122  Biso   1.000  Zn
  Zn6      1.0000 0.80824  0.62279  0.04608  Biso   1.000  Zn
  P5       1.0000 0.81650  0.63632  0.86819  Biso   1.000  P
  H18      1.0000 0.91700  0.59200  0.83600  Biso   1.000  H
  P6       1.0000 0.73200  0.78942  0.65344  Biso   1.000  P
  H19      1.0000 0.82700  0.76100  0.60700  Biso   1.000  H
  P7       1.0000 0.90810  0.47799  0.64218  Biso   1.000  P
  H20      1.0000 0.94900  0.56600  0.62400  Biso   1.000  H
  P8       1.0000 0.45420  0.43603  0.65954  Biso   1.000  P
  H21      1.0000 0.48400  0.36200  0.70300  Biso   1.000  H
  O14      1.0000 0.69610  0.59950  0.82980  Biso   1.000  O
  O15      1.0000 0.64490  0.70780  0.68490  Biso   1.000  O
  O16      1.0000 0.79860  0.49110  0.70060  Biso   1.000  O
  O17      1.0000 0.49800  0.51660  0.70950  Biso   1.000  O
  O18      1.0000 0.85630  0.74070  0.86320  Biso   1.000  O
  O19      1.0000 0.80760  0.84840  0.70790  Biso   1.000  O
  O20      1.0000 0.30610  0.44380  0.64600  Biso   1.000  O
  O21      1.0000 0.99460  0.38550  0.66090  Biso   1.000  O
  O22      1.0000 0.97950  0.95650  0.81050  Biso   1.000  O
  O23      1.0000 0.82680  0.60190  0.94350  Biso   1.000  O
  O24      1.0000 0.85940  0.42950  0.57620  Biso   1.000  O
  O25      1.0000 0.53410  0.42840  0.59020  Biso   1.000  O
  O26      1.0000 0.64330  0.85410  0.60670  Biso   1.000  O
  H22      1.0000 0.65000  0.91150  0.62000  Biso   1.000  H
  N3       1.0000 0.79950  0.77600  0.06900  Biso   1.000  N
  N4       1.0000 0.80070  0.95940  0.09470  Biso   1.000  N
  C7       1.0000 0.92810  0.82000  0.04310  Biso   1.000  C
  H23      1.0000 0.93490  0.81330  0.99080  Biso   1.000  H
  H24      1.0000 0.00320  0.78590  0.06500  Biso   1.000  H
  C8       1.0000 0.93100  0.92990  0.06420  Biso   1.000  C
  H25      1.0000 0.00110  0.94110  0.09970  Biso   1.000  H
  H26      1.0000 0.95070  0.96960  0.02180  Biso   1.000  H
  C9       1.0000 0.68670  0.82480  0.03160  Biso   1.000  C
  H27      1.0000 0.60300  0.79920  0.05040  Biso   1.000  H
  H28      1.0000 0.69070  0.80960  0.98020  Biso   1.000  H
  C10      1.0000 0.69000  0.93630  0.04170  Biso   1.000  C
  H29      1.0000 0.70700  0.96860  0.99570  Biso   1.000  H
  H30      1.0000 0.60480  0.95940  0.06030  Biso   1.000  H
  C11      1.0000 0.78310  0.79380  0.14780  Biso   1.000  C
  H31      1.0000 0.85830  0.76600  0.17400  Biso   1.000  H
  H32      1.0000 0.70190  0.76230  0.16500  Biso   1.000  H
  C12      1.0000 0.77530  0.90640  0.16180  Biso   1.000  C
  H33      1.0000 0.68730  0.92340  0.18020  Biso   1.000  H
  H34      1.0000 0.84120  0.92500  0.19790  Biso   1.000  H
  Zn7      1.0000 0.16644  0.91811  0.27382  Biso   1.000  Zn
  Zn8      1.0000 0.32893  0.64032  0.18878  Biso   1.000  Zn
  Zn9      1.0000 0.30824  0.87721  0.95392  Biso   1.000  Zn
  P9       1.0000 0.31650  0.86368  0.13181  Biso   1.000  P
  H35      1.0000 0.41700  0.90800  0.16400  Biso   1.000  H
  P10      1.0000 0.23200  0.71058  0.34656  Biso   1.000  P
  H36      1.0000 0.32700  0.73900  0.39300  Biso   1.000  H
  P11      1.0000 0.40810  0.02201  0.35782  Biso   1.000  P
  H37      1.0000 0.44900  0.93400  0.37600  Biso   1.000  H
  P12      1.0000 0.95420  0.06397  0.34046  Biso   1.000  P
  H38      1.0000 0.98400  0.13800  0.29700  Biso   1.000  H
  O27      1.0000 0.19610  0.90050  0.17020  Biso   1.000  O
  O28      1.0000 0.14490  0.79220  0.31510  Biso   1.000  O
  O29      1.0000 0.29860  0.00890  0.29940  Biso   1.000  O
  O30      1.0000 0.99800  0.98340  0.29050  Biso   1.000  O
  O31      1.0000 0.35630  0.75930  0.13680  Biso   1.000  O
  O32      1.0000 0.30760  0.65160  0.29210  Biso   1.000  O
  O33      1.0000 0.80610  0.05620  0.35400  Biso   1.000  O
  O34      1.0000 0.49460  0.11450  0.33910  Biso   1.000  O
  O35      1.0000 0.47950  0.54350  0.18950  Biso   1.000  O
  O36      1.0000 0.32680  0.89810  0.05650  Biso   1.000  O
  O37      1.0000 0.35940  0.07050  0.42380  Biso   1.000  O
  O38      1.0000 0.03410  0.07160  0.40980  Biso   1.000  O
  O39      1.0000 0.14330  0.64590  0.39330  Biso   1.000  O
  H39      1.0000 0.15000  0.58850  0.38000  Biso   1.000  H
  N5       1.0000 0.29950  0.72400  0.93100  Biso   1.000  N
  N6       1.0000 0.30070  0.54060  0.90530  Biso   1.000  N
  C13      1.0000 0.42810  0.68000  0.95690  Biso   1.000  C
  H40      1.0000 0.43490  0.68670  0.00920  Biso   1.000  H
  H41      1.0000 0.50320  0.71410  0.93500  Biso   1.000  H
  C14      1.0000 0.43100  0.57010  0.93580  Biso   1.000  C
  H42      1.0000 0.50110  0.55890  0.90030  Biso   1.000  H
  H43      1.0000 0.45070  0.53040  0.97820  Biso   1.000  H
  C15      1.0000 0.18670  0.67520  0.96840  Biso   1.000  C
  H44      1.0000 0.10300  0.70080  0.94960  Biso   1.000  H
  H45      1.0000 0.19070  0.69040  0.01980  Biso   1.000  H
  C16      1.0000 0.19000  0.56370  0.95830  Biso   1.000  C
  H46      1.0000 0.20700  0.53140  0.00430  Biso   1.000  H
  H47      1.0000 0.10480  0.54060  0.93970  Biso   1.000  H
  C17      1.0000 0.28310  0.70620  0.85220  Biso   1.000  C
  H48      1.0000 0.35830  0.73400  0.82600  Biso   1.000  H
  H49      1.0000 0.20190  0.73770  0.83500  Biso   1.000  H
  C18      1.0000 0.27530  0.59360  0.83820  Biso   1.000  C
  H50      1.0000 0.18730  0.57660  0.81980  Biso   1.000  H
  H51      1.0000 0.34120  0.57500  0.80210  Biso   1.000  H
  Zn10     1.0000 0.33356  0.08189  0.77382  Biso   1.000  Zn
  Zn11     1.0000 0.17107  0.35968  0.68878  Biso   1.000  Zn
  Zn12     1.0000 0.19176  0.12279  0.45392  Biso   1.000  Zn
  P13      1.0000 0.18350  0.13632  0.63181  Biso   1.000  P
  H52      1.0000 0.08300  0.09200  0.66400  Biso   1.000  H
  P14      1.0000 0.26800  0.28942  0.84656  Biso   1.000  P
  H53      1.0000 0.17300  0.26100  0.89300  Biso   1.000  H
  P15      1.0000 0.09190  0.97799  0.85782  Biso   1.000  P
  H54      1.0000 0.05100  0.06600  0.87600  Biso   1.000  H
  P16      1.0000 0.54580  0.93603  0.84046  Biso   1.000  P
  H55      1.0000 0.51600  0.86200  0.79700  Biso   1.000  H
  O40      1.0000 0.30390  0.09950  0.67020  Biso   1.000  O
  O41      1.0000 0.35510  0.20780  0.81510  Biso   1.000  O
  O42      1.0000 0.20140  0.99110  0.79940  Biso   1.000  O
  O43      1.0000 0.50200  0.01660  0.79050  Biso   1.000  O
  O44      1.0000 0.14370  0.24070  0.63680  Biso   1.000  O
  O45      1.0000 0.19240  0.34840  0.79210  Biso   1.000  O
  O46      1.0000 0.69390  0.94380  0.85400  Biso   1.000  O
  O47      1.0000 0.00540  0.88550  0.83910  Biso   1.000  O
  O48      1.0000 0.02050  0.45650  0.68950  Biso   1.000  O
  O49      1.0000 0.17320  0.10190  0.55650  Biso   1.000  O
  O50      1.0000 0.14060  0.92950  0.92380  Biso   1.000  O
  O51      1.0000 0.46590  0.92840  0.90980  Biso   1.000  O
  O52      1.0000 0.35670  0.35410  0.89330  Biso   1.000  O
  H56      1.0000 0.35000  0.41150  0.88000  Biso   1.000  H
  N7       1.0000 0.20050  0.27600  0.43100  Biso   1.000  N
  N8       1.0000 0.19930  0.45940  0.40530  Biso   1.000  N
  C19      1.0000 0.07190  0.32000  0.45690  Biso   1.000  C
  H57      1.0000 0.06510  0.31330  0.50920  Biso   1.000  H
  H58      1.0000 0.99680  0.28590  0.43500  Biso   1.000  H
  C20      1.0000 0.06900  0.42990  0.43580  Biso   1.000  C
  H59      1.0000 0.99890  0.44110  0.40030  Biso   1.000  H
  H60      1.0000 0.04930  0.46960  0.47820  Biso   1.000  H
  C21      1.0000 0.31330  0.32480  0.46840  Biso   1.000  C
  H61      1.0000 0.39700  0.29920  0.44960  Biso   1.000  H
  H62      1.0000 0.30930  0.30960  0.51980  Biso   1.000  H
  C22      1.0000 0.31000  0.43630  0.45830  Biso   1.000  C
  H63      1.0000 0.29300  0.46860  0.50430  Biso   1.000  H
  H64      1.0000 0.39520  0.45940  0.43970  Biso   1.000  H
  C23      1.0000 0.21690  0.29380  0.35220  Biso   1.000  C
  H65      1.0000 0.14170  0.26600  0.32600  Biso   1.000  H
  H66      1.0000 0.29810  0.26230  0.33500  Biso   1.000  H
  C24      1.0000 0.22470  0.40640  0.33820  Biso   1.000  C
  H67      1.0000 0.31270  0.42340  0.31980  Biso   1.000  H
  H68      1.0000 0.15880  0.42500  0.30210  Biso   1.000  H
