data_image0
_cell_length_a       15.0535
_cell_length_b       21.8564
_cell_length_c       3.6939
_cell_angle_alpha    90
_cell_angle_beta     90
_cell_angle_gamma    90

_symmetry_space_group_name_H-M    "P 1"
_symmetry_int_tables_number       1

loop_
  _symmetry_equiv_pos_as_xyz
  'x, y, z'

loop_
  _atom_site_label
  _atom_site_occupancy
  _atom_site_fract_x
  _atom_site_fract_y
  _atom_site_fract_z
  _atom_site_thermal_displace_type
  _atom_site_B_iso_or_equiv
  _atom_site_type_symbol
  Ag1      1.0000 0.13276  0.00276  0.53540  Biso   1.000  Ag
  N1       1.0000 0.18169  0.09534  0.55780  Biso   1.000  N
  C1       1.0000 0.29363  0.17136  0.47100  Biso   1.000  C
  H1       1.0000 0.35180  0.18040  0.40540  Biso   1.000  H
  C2       1.0000 0.26413  0.11221  0.46820  Biso   1.000  C
  H2       1.0000 0.30390  0.08180  0.39950  Biso   1.000  H
  C3       1.0000 0.23564  0.21785  0.57330  Biso   1.000  C
  C4       1.0000 0.12681  0.13995  0.66810  Biso   1.000  C
  H3       1.0000 0.06990  0.12920  0.74270  Biso   1.000  H
  C5       1.0000 0.14992  0.20008  0.67690  Biso   1.000  C
  H4       1.0000 0.10890  0.22930  0.75140  Biso   1.000  H
  Ag2      1.0000 0.63276  0.50276  0.53540  Biso   1.000  Ag
  N2       1.0000 0.68169  0.59534  0.55780  Biso   1.000  N
  C6       1.0000 0.79363  0.67136  0.47100  Biso   1.000  C
  H5       1.0000 0.85180  0.68040  0.40540  Biso   1.000  H
  C7       1.0000 0.76413  0.61221  0.46820  Biso   1.000  C
  H6       1.0000 0.80390  0.58180  0.39950  Biso   1.000  H
  C8       1.0000 0.73564  0.71785  0.57330  Biso   1.000  C
  C9       1.0000 0.62681  0.63995  0.66810  Biso   1.000  C
  H7       1.0000 0.56990  0.62920  0.74270  Biso   1.000  H
  C10      1.0000 0.64992  0.70008  0.67690  Biso   1.000  C
  H8       1.0000 0.60890  0.72930  0.75140  Biso   1.000  H
  Ag3      1.0000 0.86724  0.99724  0.53540  Biso   1.000  Ag
  N3       1.0000 0.81831  0.90466  0.55780  Biso   1.000  N
  C11      1.0000 0.70637  0.82864  0.47100  Biso   1.000  C
  H9       1.0000 0.64820  0.81960  0.40540  Biso   1.000  H
  C12      1.0000 0.73587  0.88779  0.46820  Biso   1.000  C
  H10      1.0000 0.69610  0.91820  0.39950  Biso   1.000  H
  C13      1.0000 0.76436  0.78215  0.57330  Biso   1.000  C
  C14      1.0000 0.87319  0.86005  0.66810  Biso   1.000  C
  H11      1.0000 0.93010  0.87080  0.74270  Biso   1.000  H
  C15      1.0000 0.85008  0.79992  0.67690  Biso   1.000  C
  H12      1.0000 0.89110  0.77070  0.75140  Biso   1.000  H
  Ag4      1.0000 0.36724  0.49724  0.53540  Biso   1.000  Ag
  N4       1.0000 0.31831  0.40466  0.55780  Biso   1.000  N
  C16      1.0000 0.20637  0.32864  0.47100  Biso   1.000  C
  H13      1.0000 0.14820  0.31960  0.40540  Biso   1.000  H
  C17      1.0000 0.23587  0.38779  0.46820  Biso   1.000  C
  H14      1.0000 0.19610  0.41820  0.39950  Biso   1.000  H
  C18      1.0000 0.26436  0.28215  0.57330  Biso   1.000  C
  C19      1.0000 0.37319  0.36005  0.66810  Biso   1.000  C
  H15      1.0000 0.43010  0.37080  0.74270  Biso   1.000  H
  C20      1.0000 0.35008  0.29992  0.67690  Biso   1.000  C
  H16      1.0000 0.39110  0.27070  0.75140  Biso   1.000  H
  Ag5      1.0000 0.86724  0.00276  0.46460  Biso   1.000  Ag
  N5       1.0000 0.81831  0.09534  0.44220  Biso   1.000  N
  C21      1.0000 0.70637  0.17136  0.52900  Biso   1.000  C
  H17      1.0000 0.64820  0.18040  0.59460  Biso   1.000  H
  C22      1.0000 0.73587  0.11221  0.53180  Biso   1.000  C
  H18      1.0000 0.69610  0.08180  0.60050  Biso   1.000  H
  C23      1.0000 0.76436  0.21785  0.42670  Biso   1.000  C
  C24      1.0000 0.87319  0.13995  0.33190  Biso   1.000  C
  H19      1.0000 0.93010  0.12920  0.25730  Biso   1.000  H
  C25      1.0000 0.85008  0.20008  0.32310  Biso   1.000  C
  H20      1.0000 0.89110  0.22930  0.24860  Biso   1.000  H
  Ag6      1.0000 0.36724  0.50276  0.46460  Biso   1.000  Ag
  N6       1.0000 0.31831  0.59534  0.44220  Biso   1.000  N
  C26      1.0000 0.20637  0.67136  0.52900  Biso   1.000  C
  H21      1.0000 0.14820  0.68040  0.59460  Biso   1.000  H
  C27      1.0000 0.23587  0.61221  0.53180  Biso   1.000  C
  H22      1.0000 0.19610  0.58180  0.60050  Biso   1.000  H
  C28      1.0000 0.26436  0.71785  0.42670  Biso   1.000  C
  C29      1.0000 0.37319  0.63995  0.33190  Biso   1.000  C
  H23      1.0000 0.43010  0.62920  0.25730  Biso   1.000  H
  C30      1.0000 0.35008  0.70008  0.32310  Biso   1.000  C
  H24      1.0000 0.39110  0.72930  0.24860  Biso   1.000  H
  Ag7      1.0000 0.13276  0.99724  0.46460  Biso   1.000  Ag
  N7       1.0000 0.18169  0.90466  0.44220  Biso   1.000  N
  C31      1.0000 0.29363  0.82864  0.52900  Biso   1.000  C
  H25      1.0000 0.35180  0.81960  0.59460  Biso   1.000  H
  C32      1.0000 0.26413  0.88779  0.53180  Biso   1.000  C
  H26      1.0000 0.30390  0.91820  0.60050  Biso   1.000  H
  C33      1.0000 0.23564  0.78215  0.42670  Biso   1.000  C
  C34      1.0000 0.12681  0.86005  0.33190  Biso   1.000  C
  H27      1.0000 0.06990  0.87080  0.25730  Biso   1.000  H
  C35      1.0000 0.14992  0.79992  0.32310  Biso   1.000  C
  H28      1.0000 0.10890  0.77070  0.24860  Biso   1.000  H
  Ag8      1.0000 0.63276  0.49724  0.46460  Biso   1.000  Ag
  N8       1.0000 0.68169  0.40466  0.44220  Biso   1.000  N
  C36      1.0000 0.79363  0.32864  0.52900  Biso   1.000  C
  H29      1.0000 0.85180  0.31960  0.59460  Biso   1.000  H
  C37      1.0000 0.76413  0.38779  0.53180  Biso   1.000  C
  H30      1.0000 0.80390  0.41820  0.60050  Biso   1.000  H
  C38      1.0000 0.73564  0.28215  0.42670  Biso   1.000  C
  C39      1.0000 0.62681  0.36005  0.33190  Biso   1.000  C
  H31      1.0000 0.56990  0.37080  0.25730  Biso   1.000  H
  C40      1.0000 0.64992  0.29992  0.32310  Biso   1.000  C
  H32      1.0000 0.60890  0.27070  0.24860  Biso   1.000  H
  Cl1      1.0000 0.00000  0.00000  0.00000  Biso   1.000  Cl
  Cl2      1.0000 0.50000  0.50000  0.00000  Biso   1.000  Cl
