data_image0
_cell_length_a       11.2148
_cell_length_b       17.3605
_cell_length_c       26.9709
_cell_angle_alpha    84.067
_cell_angle_beta     85.012
_cell_angle_gamma    71.92

_symmetry_space_group_name_H-M    "P 1"
_symmetry_int_tables_number       1

loop_
  _symmetry_equiv_pos_as_xyz
  'x, y, z'

loop_
  _atom_site_label
  _atom_site_occupancy
  _atom_site_fract_x
  _atom_site_fract_y
  _atom_site_fract_z
  _atom_site_thermal_displace_type
  _atom_site_B_iso_or_equiv
  _atom_site_type_symbol
  Sm1      1.0000 0.75334  0.94411  0.59488  Biso   1.000  Sm
  O1       1.0000 0.81370  0.86390  0.67090  Biso   1.000  O
  O2       1.0000 0.65460  0.03350  0.65570  Biso   1.000  O
  O3       1.0000 0.88550  0.90930  0.51960  Biso   1.000  O
  O4       1.0000 0.75190  0.08450  0.54770  Biso   1.000  O
  O5       1.0000 0.92370  0.99030  0.61690  Biso   1.000  O
  O6       1.0000 0.57610  0.98440  0.55160  Biso   1.000  O
  C1       1.0000 0.93050  0.81840  0.67680  Biso   1.000  C
  C2       1.0000 0.55160  0.05030  0.68190  Biso   1.000  C
  C3       1.0000 0.97130  0.93220  0.50060  Biso   1.000  C
  Sm2      1.0000 0.94116  0.11140  0.56859  Biso   1.000  Sm
  C4       1.0000 0.65430  0.13050  0.52690  Biso   1.000  C
  Sm3      1.0000 0.13538  0.89697  0.60798  Biso   1.000  Sm
  C5       1.0000 0.95880  0.77890  0.72810  Biso   1.000  C
  O7       1.0000 0.01280  0.81340  0.64290  Biso   1.000  O
  C6       1.0000 0.55740  0.04910  0.73820  Biso   1.000  C
  O8       1.0000 0.44670  0.06770  0.66470  Biso   1.000  O
  C7       1.0000 0.00560  0.92170  0.44460  Biso   1.000  C
  O9       1.0000 0.03260  0.97070  0.52140  Biso   1.000  O
  O10      1.0000 0.05630  0.14230  0.49410  Biso   1.000  O
  O11      1.0000 0.81480  0.23370  0.52610  Biso   1.000  O
  O12      1.0000 0.15070  0.03100  0.58290  Biso   1.000  O
  O13      1.0000 0.05070  0.18960  0.60710  Biso   1.000  O
  O14      1.0000 0.82770  0.15880  0.64510  Biso   1.000  O
  C8       1.0000 0.65380  0.13470  0.47060  Biso   1.000  C
  O15      1.0000 0.55920  0.17280  0.54970  Biso   1.000  O
  O16      1.0000 0.29550  0.79280  0.65570  Biso   1.000  O
  O17      1.0000 0.33750  0.90860  0.64700  Biso   1.000  O
  O18      1.0000 0.08440  0.93810  0.69530  Biso   1.000  O
  O19      1.0000 0.16400  0.79080  0.54960  Biso   1.000  O
  O20      1.0000 0.30690  0.85440  0.54200  Biso   1.000  O
  C9       1.0000 0.86190  0.78220  0.76620  Biso   1.000  C
  C10      1.0000 0.08450  0.73980  0.73780  Biso   1.000  C
  C11      1.0000 0.44930  0.08280  0.76490  Biso   1.000  C
  C12      1.0000 0.67240  0.01850  0.76140  Biso   1.000  C
  Sm4      1.0000 0.25807  0.09920  0.62783  Biso   1.000  Sm
  C13      1.0000 0.09980  0.94770  0.41980  Biso   1.000  C
  C14      1.0000 0.93840  0.88550  0.41890  Biso   1.000  C
  C15      1.0000 0.09970  0.19900  0.47540  Biso   1.000  C
  C16      1.0000 0.83550  0.30050  0.51260  Biso   1.000  C
  Sm5      1.0000 0.07281  0.31937  0.57509  Biso   1.000  Sm
  C17      1.0000 0.54720  0.17350  0.44640  Biso   1.000  C
  C18      1.0000 0.76670  0.09630  0.44360  Biso   1.000  C
  Sm6      1.0000 0.45207  0.27779  0.60158  Biso   1.000  Sm
  C19      1.0000 0.33850  0.84400  0.67070  Biso   1.000  C
  C20      1.0000 0.11460  0.98860  0.71620  Biso   1.000  C
  C21      1.0000 0.25820  0.80550  0.52360  Biso   1.000  C
  C22      1.0000 0.89450  0.75050  0.81420  Biso   1.000  C
  C23      1.0000 0.11410  0.70910  0.78580  Biso   1.000  C
  C24      1.0000 0.45210  0.08630  0.81650  Biso   1.000  C
  C25      1.0000 0.67350  0.02080  0.81310  Biso   1.000  C
  C26      1.0000 0.12640  0.93930  0.36780  Biso   1.000  C
  C27      1.0000 0.95800  0.87970  0.36760  Biso   1.000  C
  C28      1.0000 0.11330  0.20740  0.42010  Biso   1.000  C
  O21      1.0000 0.13240  0.24490  0.50050  Biso   1.000  O
  C29      1.0000 0.81500  0.33680  0.46040  Biso   1.000  C
  O22      1.0000 0.88130  0.33810  0.54060  Biso   1.000  O
  O23      1.0000 0.14850  0.04790  0.69530  Biso   1.000  O
  O24      1.0000 0.20710  0.20030  0.68690  Biso   1.000  O
  O25      1.0000 0.37300  0.05490  0.55030  Biso   1.000  O
  O26      1.0000 0.28960  0.22430  0.58390  Biso   1.000  O
  O27      1.0000 0.92490  0.34100  0.64960  Biso   1.000  O
  O28      1.0000 0.08870  0.38080  0.65360  Biso   1.000  O
  O29      1.0000 0.18590  0.39200  0.52160  Biso   1.000  O
  C30      1.0000 0.54610  0.17360  0.39530  Biso   1.000  C
  C31      1.0000 0.76740  0.09890  0.39210  Biso   1.000  C
  C32      1.0000 0.39570  0.82600  0.72190  Biso   1.000  C
  C33      1.0000 0.10660  0.98040  0.77350  Biso   1.000  C
  C34      1.0000 0.30400  0.77340  0.47620  Biso   1.000  C
  C35      1.0000 0.01940  0.71500  0.82430  Biso   1.000  C
  C36      1.0000 0.56560  0.05540  0.84040  Biso   1.000  C
  C37      1.0000 0.05520  0.91010  0.34140  Biso   1.000  C
  C38      1.0000 0.17110  0.26470  0.39620  Biso   1.000  C
  C39      1.0000 0.05960  0.16710  0.39110  Biso   1.000  C
  C40      1.0000 0.76730  0.29940  0.42730  Biso   1.000  C
  C41      1.0000 0.85600  0.40480  0.44260  Biso   1.000  C
  C42      1.0000 0.26060  0.24220  0.70520  Biso   1.000  C
  C43      1.0000 0.47440  0.01480  0.53030  Biso   1.000  C
  C44      1.0000 0.98640  0.37460  0.67140  Biso   1.000  C
  C45      1.0000 0.29330  0.38020  0.50160  Biso   1.000  C
  C46      1.0000 0.65760  0.13400  0.36700  Biso   1.000  C
  C47      1.0000 0.42340  0.88490  0.74500  Biso   1.000  C
  C48      1.0000 0.41380  0.74600  0.74680  Biso   1.000  C
  C49      1.0000 0.15660  0.02900  0.79940  Biso   1.000  C
  C50      1.0000 0.05600  0.92410  0.79980  Biso   1.000  C
  C51      1.0000 0.24040  0.73160  0.45240  Biso   1.000  C
  C52      1.0000 0.40880  0.79000  0.45020  Biso   1.000  C
  C53      1.0000 0.05620  0.68250  0.87410  Biso   1.000  C
  C54      1.0000 0.56580  0.06080  0.89540  Biso   1.000  C
  C55      1.0000 0.06920  0.90840  0.28620  Biso   1.000  C
  C56      1.0000 0.18000  0.27590  0.34590  Biso   1.000  C
  C57      1.0000 0.06320  0.18070  0.33990  Biso   1.000  C
  C58      1.0000 0.75820  0.33040  0.37830  Biso   1.000  C
  C59      1.0000 0.84300  0.43300  0.39290  Biso   1.000  C
  C60      1.0000 0.22700  0.26280  0.75730  Biso   1.000  C
  O30      1.0000 0.35030  0.26560  0.68050  Biso   1.000  O
  C61      1.0000 0.47490  0.99770  0.47580  Biso   1.000  C
  O31      1.0000 0.62870  0.23060  0.64750  Biso   1.000  O
  O32      1.0000 0.39450  0.34180  0.51960  Biso   1.000  O
  C62      1.0000 0.93900  0.40500  0.72200  Biso   1.000  C
  C63      1.0000 0.29660  0.41530  0.44750  Biso   1.000  C
  C64      1.0000 0.66230  0.13400  0.31290  Biso   1.000  C
  C65      1.0000 0.45820  0.87270  0.79270  Biso   1.000  C
  C66      1.0000 0.44100  0.73710  0.79630  Biso   1.000  C
  C67      1.0000 0.15180  0.01980  0.85000  Biso   1.000  C
  C68      1.0000 0.05200  0.91680  0.85130  Biso   1.000  C
  C69      1.0000 0.27380  0.70750  0.40640  Biso   1.000  C
  C70      1.0000 0.45400  0.76040  0.40720  Biso   1.000  C
  C71      1.0000 0.99400  0.63660  0.90580  Biso   1.000  C
  C72      1.0000 0.16100  0.69270  0.89150  Biso   1.000  C
  C73      1.0000 0.48360  0.12720  0.91840  Biso   1.000  C
  C74      1.0000 0.64140  0.00000  0.92640  Biso   1.000  C
  C75      1.0000 0.13830  0.95510  0.25730  Biso   1.000  C
  C76      1.0000 0.02400  0.86230  0.25840  Biso   1.000  C
  C77      1.0000 0.12570  0.23660  0.31670  Biso   1.000  C
  C78      1.0000 0.80350  0.39450  0.35790  Biso   1.000  C
  C79      1.0000 0.29420  0.30290  0.78130  Biso   1.000  C
  C80      1.0000 0.13210  0.23920  0.78350  Biso   1.000  C
  C81      1.0000 0.36520  0.03420  0.45000  Biso   1.000  C
  C82      1.0000 0.58310  0.95140  0.45190  Biso   1.000  C
  C83      1.0000 0.73030  0.19730  0.66530  Biso   1.000  C
  C84      1.0000 0.83100  0.39030  0.74540  Biso   1.000  C
  C85      1.0000 0.00230  0.44480  0.74920  Biso   1.000  C
  C86      1.0000 0.19090  0.45880  0.42340  Biso   1.000  C
  C87      1.0000 0.41400  0.39560  0.41930  Biso   1.000  C
  C88      1.0000 0.58750  0.19740  0.28180  Biso   1.000  C
  C89      1.0000 0.74000  0.06460  0.28790  Biso   1.000  C
  C90      1.0000 0.46040  0.79840  0.82110  Biso   1.000  C
  C91      1.0000 0.10560  0.96100  0.87780  Biso   1.000  C
  C92      1.0000 0.38100  0.72010  0.38300  Biso   1.000  C
  C93      1.0000 0.03400  0.60570  0.95190  Biso   1.000  C
  C94      1.0000 0.19700  0.66870  0.94350  Biso   1.000  C
  C95      1.0000 0.48350  0.13140  0.96830  Biso   1.000  C
  C96      1.0000 0.64130  0.00630  0.97720  Biso   1.000  C
  C97      1.0000 0.15000  0.95810  0.20900  Biso   1.000  C
  C98      1.0000 0.03060  0.87010  0.20970  Biso   1.000  C
  C99      1.0000 0.12030  0.25250  0.26140  Biso   1.000  C
  C100     1.0000 0.80520  0.41990  0.30600  Biso   1.000  C
  C101     1.0000 0.26710  0.31400  0.83180  Biso   1.000  C
  C102     1.0000 0.10540  0.25200  0.83250  Biso   1.000  C
  C103     1.0000 0.36960  0.02640  0.39970  Biso   1.000  C
  C104     1.0000 0.58530  0.94070  0.40060  Biso   1.000  C
  C105     1.0000 0.73710  0.20100  0.72190  Biso   1.000  C
  C106     1.0000 0.78100  0.41530  0.79100  Biso   1.000  C
  C107     1.0000 0.95270  0.46820  0.79750  Biso   1.000  C
  C108     1.0000 0.19580  0.48850  0.37380  Biso   1.000  C
  C109     1.0000 0.41510  0.42750  0.36950  Biso   1.000  C
  C110     1.0000 0.59800  0.19010  0.23070  Biso   1.000  C
  C111     1.0000 0.74160  0.06580  0.23810  Biso   1.000  C
  C112     1.0000 0.48680  0.78580  0.87490  Biso   1.000  C
  C113     1.0000 0.10530  0.94990  0.93320  Biso   1.000  C
  C114     1.0000 0.44200  0.70210  0.33080  Biso   1.000  C
  N1       1.0000 0.13280  0.62440  0.97250  Biso   1.000  N
  N2       1.0000 0.56090  0.07440  0.99940  Biso   1.000  N
  N3       1.0000 0.09720  0.91610  0.18180  Biso   1.000  N
  C115     1.0000 0.20000  0.29970  0.23530  Biso   1.000  C
  C116     1.0000 0.08800  0.21800  0.22970  Biso   1.000  C
  C117     1.0000 0.86830  0.46940  0.28090  Biso   1.000  C
  C118     1.0000 0.71400  0.42800  0.27480  Biso   1.000  C
  C119     1.0000 0.17940  0.28500  0.85930  Biso   1.000  C
  C120     1.0000 0.47860  0.97930  0.37330  Biso   1.000  C
  C121     1.0000 0.84670  0.16510  0.74510  Biso   1.000  C
  C122     1.0000 0.62720  0.24270  0.74980  Biso   1.000  C
  C123     1.0000 0.84750  0.45370  0.81890  Biso   1.000  C
  C124     1.0000 0.30640  0.46780  0.34340  Biso   1.000  C
  N4       1.0000 0.67580  0.12770  0.20800  Biso   1.000  N
  C125     1.0000 0.54200  0.83900  0.90070  Biso   1.000  C
  C126     1.0000 0.54100  0.71000  0.89820  Biso   1.000  C
  C127     1.0000 0.18300  0.98080  0.95920  Biso   1.000  C
  C128     1.0000 0.02680  0.91650  0.96380  Biso   1.000  C
  C129     1.0000 0.35300  0.71910  0.28830  Biso   1.000  C
  C130     1.0000 0.55900  0.69500  0.31600  Biso   1.000  C
  Cu1      1.0000 0.18270  0.58896  0.04205  Biso   1.000  Cu
  Cu2      1.0000 0.53930  0.08410  0.07437  Biso   1.000  Cu
  Cu3      1.0000 0.10090  0.93160  0.10950  Biso   1.000  Cu
  C131     1.0000 0.18500  0.32150  0.18630  Biso   1.000  C
  C132     1.0000 0.09800  0.23400  0.17680  Biso   1.000  C
  C133     1.0000 0.87900  0.48400  0.23130  Biso   1.000  C
  C134     1.0000 0.70100  0.46600  0.22300  Biso   1.000  C
  C135     1.0000 0.16020  0.29360  0.91360  Biso   1.000  C
  C136     1.0000 0.48180  0.97700  0.31980  Biso   1.000  C
  C137     1.0000 0.85140  0.16830  0.79690  Biso   1.000  C
  C138     1.0000 0.63250  0.24660  0.80030  Biso   1.000  C
  C139     1.0000 0.79460  0.47400  0.86980  Biso   1.000  C
  C140     1.0000 0.31400  0.48910  0.29160  Biso   1.000  C
  Cu4      1.0000 0.70066  0.12685  0.13223  Biso   1.000  Cu
  C141     1.0000 0.52000  0.83600  0.94850  Biso   1.000  C
  C142     1.0000 0.57000  0.69800  0.94970  Biso   1.000  C
  C143     1.0000 0.22400  0.95200  0.00820  Biso   1.000  C
  C144     1.0000 0.02660  0.91160  0.01650  Biso   1.000  C
  C145     1.0000 0.40800  0.71010  0.24470  Biso   1.000  C
  C146     1.0000 0.60700  0.66500  0.27160  Biso   1.000  C
  I1       1.0000 0.01927  0.51341  0.09062  Biso   1.000  I
  I2       1.0000 0.18472  0.71380  0.09244  Biso   1.000  I
  I3       1.0000 0.39892  0.47041  0.04476  Biso   1.000  I
  I4       1.0000 0.72837  0.96391  0.11416  Biso   1.000  I
  I5       1.0000 0.30394  0.08557  0.10108  Biso   1.000  I
  I6       1.0000 0.51445  0.23678  0.09124  Biso   1.000  I
  N5       1.0000 0.11070  0.29130  0.15770  Biso   1.000  N
  N6       1.0000 0.80830  0.46040  0.20160  Biso   1.000  N
  C147     1.0000 0.19900  0.34820  0.93630  Biso   1.000  C
  C148     1.0000 0.10630  0.24420  0.94580  Biso   1.000  C
  C149     1.0000 0.41210  0.04160  0.28910  Biso   1.000  C
  C150     1.0000 0.54990  0.90700  0.29630  Biso   1.000  C
  C151     1.0000 0.74400  0.20980  0.82440  Biso   1.000  C
  C152     1.0000 0.66700  0.49340  0.88230  Biso   1.000  C
  C153     1.0000 0.87130  0.46270  0.90860  Biso   1.000  C
  C154     1.0000 0.21900  0.55900  0.26890  Biso   1.000  C
  C155     1.0000 0.42700  0.48000  0.26320  Biso   1.000  C
  N7       1.0000 0.75480  0.22170  0.98350  Biso   1.000  N
  N8       1.0000 0.52950  0.76260  0.97750  Biso   1.000  N
  N9       1.0000 0.10810  0.93170  0.03840  Biso   1.000  N
  N10      1.0000 0.52600  0.68660  0.23170  Biso   1.000  N
  Cu5      1.0000 0.80880  0.48430  0.12471  Biso   1.000  Cu
  Cu6      1.0000 0.96770  0.67478  0.09365  Biso   1.000  Cu
  Cu7      1.0000 0.10050  0.31560  0.08721  Biso   1.000  Cu
  Cu8      1.0000 0.36060  0.57250  0.11030  Biso   1.000  Cu
  Cu9      1.0000 0.69310  0.82095  0.10655  Biso   1.000  Cu
  Cu10     1.0000 0.49086  0.97179  0.13980  Biso   1.000  Cu
  Cu11     1.0000 0.74989  0.22541  0.05830  Biso   1.000  Cu
  C156     1.0000 0.17370  0.35660  0.98880  Biso   1.000  C
  C157     1.0000 0.08970  0.25030  0.99560  Biso   1.000  C
  C158     1.0000 0.41570  0.03600  0.23680  Biso   1.000  C
  C159     1.0000 0.54820  0.90690  0.24420  Biso   1.000  C
  C160     1.0000 0.74740  0.21550  0.88000  Biso   1.000  C
  C161     1.0000 0.62230  0.50310  0.93090  Biso   1.000  C
  C162     1.0000 0.82100  0.47280  0.95830  Biso   1.000  C
  C163     1.0000 0.22800  0.55920  0.21470  Biso   1.000  C
  C164     1.0000 0.41000  0.46570  0.20560  Biso   1.000  C
  Cu12     1.0000 0.59640  0.74428  0.04765  Biso   1.000  Cu
  Cu13     1.0000 0.60580  0.70845  0.16130  Biso   1.000  Cu
  I7       1.0000 0.60511  0.60248  0.09769  Biso   1.000  I
  I8       1.0000 0.79219  0.35744  0.08628  Biso   1.000  I
  I9       1.0000 0.82015  0.76459  0.02249  Biso   1.000  I
  I10      1.0000 0.82986  0.72060  0.17723  Biso   1.000  I
  N11      1.0000 0.31700  0.53730  0.18630  Biso   1.000  N
  I11      1.0000 0.44368  0.84010  0.11248  Biso   1.000  I
  N12      1.0000 0.48170  0.97030  0.21490  Biso   1.000  N
  I12      1.0000 0.93400  0.11414  0.10259  Biso   1.000  I
  N13      1.0000 0.12700  0.30280  0.01800  Biso   1.000  N
  C165     1.0000 0.82550  0.15100  0.90820  Biso   1.000  C
  C166     1.0000 0.67000  0.28260  0.90400  Biso   1.000  C
  N14      1.0000 0.69950  0.49090  0.96820  Biso   1.000  N
  Cu14     1.0000 0.63240  0.47855  0.04125  Biso   1.000  Cu
  C167     1.0000 0.82970  0.15560  0.96110  Biso   1.000  C
  C168     1.0000 0.67730  0.28310  0.95490  Biso   1.000  C
  Cu15     1.0000 0.39560  0.70390  0.14120  Biso   1.000  Cu
  Cu16     1.0000 0.81470  0.57440  0.14420  Biso   1.000  Cu
  C169     1.0000 0.46900  0.71800  0.90420  Biso   1.000  C
  C170     1.0000 0.17300  0.98510  0.00950  Biso   1.000  C
  C171     1.0000 0.37900  0.69800  0.21610  Biso   1.000  C
  C172     1.0000 0.27000  0.71800  0.29500  Biso   1.000  C
  C173     1.0000 0.37300  0.70800  0.31440  Biso   1.000  C
  C174     1.0000 0.56500  0.66400  0.31880  Biso   1.000  C
  Cu17     1.0000 0.30630  0.56450  0.11560  Biso   1.000  Cu
  C175     1.0000 0.78200  0.37800  0.21310  Biso   1.000  C
  C176     1.0000 0.78100  0.36100  0.26830  Biso   1.000  C
  C177     1.0000 0.20400  0.52600  0.26150  Biso   1.000  C
  C178     1.0000 0.39300  0.43700  0.25570  Biso   1.000  C
  C179     1.0000 0.01700  0.23700  0.23710  Biso   1.000  C
  C180     1.0000 0.02700  0.25950  0.18100  Biso   1.000  C
  C181     1.0000 0.80800  0.51100  0.22000  Biso   1.000  C
  C182     1.0000 0.68200  0.66900  0.25300  Biso   1.000  C
  C183     1.0000 0.46200  0.83160  0.95620  Biso   1.000  C
  C184     1.0000 0.46100  0.84600  0.90800  Biso   1.000  C
  C185     1.0000 0.49600  0.70820  0.95660  Biso   1.000  C
