data_image0
_cell_length_a       12.7745
_cell_length_b       14.18
_cell_length_c       14.5221
_cell_angle_alpha    70.86
_cell_angle_beta     88.158
_cell_angle_gamma    73.63

_symmetry_space_group_name_H-M    "P 1"
_symmetry_int_tables_number       1

loop_
  _symmetry_equiv_pos_as_xyz
  'x, y, z'

loop_
  _atom_site_label
  _atom_site_occupancy
  _atom_site_fract_x
  _atom_site_fract_y
  _atom_site_fract_z
  _atom_site_thermal_displace_type
  _atom_site_B_iso_or_equiv
  _atom_site_type_symbol
  C1       1.0000 0.54670  0.10320  0.53760  Biso   1.000  C
  C2       1.0000 0.56960  0.06740  0.62560  Biso   1.000  C
  C3       1.0000 0.59680  0.02960  0.73040  Biso   1.000  C
  C4       1.0000 0.53990  0.08380  0.78770  Biso   1.000  C
  H1       1.0000 0.48220  0.14350  0.76020  Biso   1.000  H
  C5       1.0000 0.56880  0.04930  0.88690  Biso   1.000  C
  H2       1.0000 0.53170  0.08800  0.92490  Biso   1.000  H
  C6       1.0000 0.64910  0.96140  0.92960  Biso   1.000  C
  H3       1.0000 0.66360  0.93690  0.99700  Biso   1.000  H
  C7       1.0000 0.71110  0.90660  0.87130  Biso   1.000  C
  H4       1.0000 0.76920  0.84740  0.89950  Biso   1.000  H
  C8       1.0000 0.68450  0.94180  0.77150  Biso   1.000  C
  H5       1.0000 0.72540  0.90670  0.73230  Biso   1.000  H
  C9       1.0000 0.41410  0.40340  0.54940  Biso   1.000  C
  C10      1.0000 0.32070  0.45630  0.52230  Biso   1.000  C
  C11      1.0000 0.20810  0.51870  0.49680  Biso   1.000  C
  C12      1.0000 0.16520  0.56250  0.40120  Biso   1.000  C
  H6       1.0000 0.20910  0.55180  0.35110  Biso   1.000  H
  C13      1.0000 0.05780  0.62210  0.37970  Biso   1.000  C
  H7       1.0000 0.02940  0.65140  0.31520  Biso   1.000  H
  C14      1.0000 0.99260  0.63830  0.45310  Biso   1.000  C
  H8       1.0000 0.91980  0.67770  0.43760  Biso   1.000  H
  C15      1.0000 0.03220  0.59760  0.54900  Biso   1.000  C
  H9       1.0000 0.98740  0.61070  0.59780  Biso   1.000  H
  C16      1.0000 0.14120  0.53610  0.57230  Biso   1.000  C
  H10      1.0000 0.16920  0.50700  0.63700  Biso   1.000  H
  C17      1.0000 0.81400  0.21640  0.54250  Biso   1.000  C
  H11      1.0000 0.79870  0.25530  0.47660  Biso   1.000  H
  C18      1.0000 0.79550  0.15300  0.69560  Biso   1.000  C
  H12      1.0000 0.76510  0.14010  0.75590  Biso   1.000  H
  C19      1.0000 0.89910  0.10630  0.67890  Biso   1.000  C
  H13      1.0000 0.95210  0.05550  0.72520  Biso   1.000  H
  C20      1.0000 0.00890  0.12360  0.52690  Biso   1.000  C
  H14      1.0000 0.06910  0.13610  0.55540  Biso   1.000  H
  H15      1.0000 0.99430  0.17050  0.45990  Biso   1.000  H
  C21      1.0000 0.04280  0.01190  0.52690  Biso   1.000  C
  H16      1.0000 0.05470  0.96490  0.59390  Biso   1.000  H
  H17      1.0000 0.11150  0.99900  0.49620  Biso   1.000  H
  C22      1.0000 0.53440  0.17740  0.16910  Biso   1.000  C
  H18      1.0000 0.57690  0.10860  0.18380  Biso   1.000  H
  C23      1.0000 0.49620  0.24510  0.07710  Biso   1.000  C
  H19      1.0000 0.50910  0.23230  0.01830  Biso   1.000  H
  C24      1.0000 0.44080  0.32170  0.18500  Biso   1.000  C
  H20      1.0000 0.40710  0.37240  0.21250  Biso   1.000  H
  C25      1.0000 0.38450  0.43320  0.01240  Biso   1.000  C
  H21      1.0000 0.33040  0.47810  0.03960  Biso   1.000  H
  H22      1.0000 0.34700  0.41890  0.96370  Biso   1.000  H
  C26      1.0000 0.46600  0.48940  0.96350  Biso   1.000  C
  H23      1.0000 0.42720  0.55520  0.91520  Biso   1.000  H
  H24      1.0000 0.51500  0.44800  0.92970  Biso   1.000  H
  C27      1.0000 0.23550  0.27750  0.35100  Biso   1.000  C
  C28      1.0000 0.16160  0.33680  0.25720  Biso   1.000  C
  C29      1.0000 0.26300  0.10200  0.67890  Biso   1.000  C
  C30      1.0000 0.20250  0.07230  0.77430  Biso   1.000  C
  C31      1.0000 0.32830  0.61780  0.71320  Biso   1.000  C
  C32      1.0000 0.24180  0.70340  0.73880  Biso   1.000  C
  C33      1.0000 0.64400  0.35560  0.81250  Biso   1.000  C
  C34      1.0000 0.74460  0.30280  0.88580  Biso   1.000  C
  N1       1.0000 0.74400  0.22110  0.61020  Biso   1.000  N
  N2       1.0000 0.91100  0.14760  0.58150  Biso   1.000  N
  N3       1.0000 0.50060  0.22630  0.23500  Biso   1.000  N
  N4       1.0000 0.43540  0.33520  0.09000  Biso   1.000  N
  O1       1.0000 0.28800  0.32640  0.37850  Biso   1.000  O
  O2       1.0000 0.23330  0.18520  0.38920  Biso   1.000  O
  O3       1.0000 0.27660  0.19150  0.65560  Biso   1.000  O
  O4       1.0000 0.29020  0.03540  0.63820  Biso   1.000  O
  O5       1.0000 0.38630  0.64820  0.64440  Biso   1.000  O
  O6       1.0000 0.32720  0.52820  0.75900  Biso   1.000  O
  O7       1.0000 0.64010  0.44310  0.75630  Biso   1.000  O
  O8       1.0000 0.58070  0.30270  0.81880  Biso   1.000  O
  F1       1.0000 0.13970  0.43900  0.23350  Biso   1.000  F
  F2       1.0000 0.06680  0.31520  0.26190  Biso   1.000  F
  F3       1.0000 0.20780  0.31360  0.18200  Biso   1.000  F
  F4       1.0000 0.16210  0.99380  0.78220  Biso   1.000  F
  F5       1.0000 0.27160  0.04310  0.85160  Biso   1.000  F
  F6       1.0000 0.11850  0.15030  0.77880  Biso   1.000  F
  F7       1.0000 0.25540  0.69900  0.82900  Biso   1.000  F
  F8       1.0000 0.24660  0.80070  0.68700  Biso   1.000  F
  F9       1.0000 0.14170  0.70710  0.71140  Biso   1.000  F
  F10      1.0000 0.83550  0.29370  0.84470  Biso   1.000  F
  F11      1.0000 0.75630  0.20380  0.93250  Biso   1.000  F
  F12      1.0000 0.72190  0.32100  0.96370  Biso   1.000  F
  Ag1      1.0000 0.37743  0.05693  0.49154  Biso   1.000  Ag
  Ag2      1.0000 0.53222  0.16917  0.38830  Biso   1.000  Ag
  Ag3      1.0000 0.38929  0.24682  0.52866  Biso   1.000  Ag
  Ag4      1.0000 0.57744  0.31207  0.58077  Biso   1.000  Ag
  Ag5      1.0000 0.42368  0.38225  0.71643  Biso   1.000  Ag
  Ag6      1.0000 0.53858  0.53124  0.61184  Biso   1.000  Ag
  F13      1.0000 0.21400  0.66600  0.83700  Biso   1.000  F
  F14      1.0000 0.76130  0.35600  0.93900  Biso   1.000  F
  C35      1.0000 0.45330  0.89680  0.46240  Biso   1.000  C
  C36      1.0000 0.43040  0.93260  0.37440  Biso   1.000  C
  C37      1.0000 0.40320  0.97040  0.26960  Biso   1.000  C
  C38      1.0000 0.46010  0.91620  0.21230  Biso   1.000  C
  H25      1.0000 0.51780  0.85650  0.23980  Biso   1.000  H
  C39      1.0000 0.43120  0.95070  0.11310  Biso   1.000  C
  H26      1.0000 0.46830  0.91200  0.07510  Biso   1.000  H
  C40      1.0000 0.35090  0.03860  0.07040  Biso   1.000  C
  H27      1.0000 0.33640  0.06310  0.00300  Biso   1.000  H
  C41      1.0000 0.28890  0.09340  0.12870  Biso   1.000  C
  H28      1.0000 0.23080  0.15260  0.10050  Biso   1.000  H
  C42      1.0000 0.31550  0.05820  0.22850  Biso   1.000  C
  H29      1.0000 0.27460  0.09330  0.26770  Biso   1.000  H
  C43      1.0000 0.58590  0.59660  0.45060  Biso   1.000  C
  C44      1.0000 0.67930  0.54370  0.47770  Biso   1.000  C
  C45      1.0000 0.79190  0.48130  0.50320  Biso   1.000  C
  C46      1.0000 0.83480  0.43750  0.59880  Biso   1.000  C
  H30      1.0000 0.79090  0.44820  0.64890  Biso   1.000  H
  C47      1.0000 0.94220  0.37790  0.62030  Biso   1.000  C
  H31      1.0000 0.97060  0.34860  0.68480  Biso   1.000  H
  C48      1.0000 0.00740  0.36170  0.54690  Biso   1.000  C
  H32      1.0000 0.08020  0.32230  0.56240  Biso   1.000  H
  C49      1.0000 0.96780  0.40240  0.45100  Biso   1.000  C
  H33      1.0000 0.01260  0.38930  0.40220  Biso   1.000  H
  C50      1.0000 0.85880  0.46390  0.42770  Biso   1.000  C
  H34      1.0000 0.83080  0.49300  0.36300  Biso   1.000  H
  C51      1.0000 0.18600  0.78360  0.45750  Biso   1.000  C
  H35      1.0000 0.20130  0.74470  0.52340  Biso   1.000  H
  C52      1.0000 0.20450  0.84700  0.30440  Biso   1.000  C
  H36      1.0000 0.23490  0.85990  0.24410  Biso   1.000  H
  C53      1.0000 0.10090  0.89370  0.32110  Biso   1.000  C
  H37      1.0000 0.04790  0.94450  0.27480  Biso   1.000  H
  C54      1.0000 0.99110  0.87640  0.47310  Biso   1.000  C
  H38      1.0000 0.93090  0.86390  0.44460  Biso   1.000  H
  H39      1.0000 0.00570  0.82950  0.54010  Biso   1.000  H
  C55      1.0000 0.95720  0.98810  0.47310  Biso   1.000  C
  H40      1.0000 0.94530  0.03510  0.40610  Biso   1.000  H
  H41      1.0000 0.88850  0.00100  0.50380  Biso   1.000  H
  C56      1.0000 0.46560  0.82260  0.83090  Biso   1.000  C
  H42      1.0000 0.42310  0.89140  0.81620  Biso   1.000  H
  C57      1.0000 0.50380  0.75490  0.92290  Biso   1.000  C
  H43      1.0000 0.49090  0.76770  0.98170  Biso   1.000  H
  C58      1.0000 0.55920  0.67830  0.81500  Biso   1.000  C
  H44      1.0000 0.59290  0.62760  0.78750  Biso   1.000  H
  C59      1.0000 0.61550  0.56680  0.98760  Biso   1.000  C
  H45      1.0000 0.66960  0.52190  0.96040  Biso   1.000  H
  H46      1.0000 0.65300  0.58110  0.03630  Biso   1.000  H
  C60      1.0000 0.53400  0.51060  0.03650  Biso   1.000  C
  H47      1.0000 0.57280  0.44480  0.08480  Biso   1.000  H
  H48      1.0000 0.48500  0.55200  0.07030  Biso   1.000  H
  C61      1.0000 0.76450  0.72250  0.64900  Biso   1.000  C
  C62      1.0000 0.83840  0.66320  0.74280  Biso   1.000  C
  C63      1.0000 0.73700  0.89800  0.32110  Biso   1.000  C
  C64      1.0000 0.79750  0.92770  0.22570  Biso   1.000  C
  C65      1.0000 0.67170  0.38220  0.28680  Biso   1.000  C
  C66      1.0000 0.75820  0.29660  0.26120  Biso   1.000  C
  C67      1.0000 0.35600  0.64440  0.18750  Biso   1.000  C
  C68      1.0000 0.25540  0.69720  0.11420  Biso   1.000  C
  N5       1.0000 0.25600  0.77890  0.38980  Biso   1.000  N
  N6       1.0000 0.08900  0.85240  0.41850  Biso   1.000  N
  N7       1.0000 0.49940  0.77370  0.76500  Biso   1.000  N
  N8       1.0000 0.56460  0.66480  0.91000  Biso   1.000  N
  O9       1.0000 0.71200  0.67360  0.62150  Biso   1.000  O
  O10      1.0000 0.76670  0.81480  0.61080  Biso   1.000  O
  O11      1.0000 0.72340  0.80850  0.34440  Biso   1.000  O
  O12      1.0000 0.70980  0.96460  0.36180  Biso   1.000  O
  O13      1.0000 0.61370  0.35180  0.35560  Biso   1.000  O
  O14      1.0000 0.67280  0.47180  0.24100  Biso   1.000  O
  O15      1.0000 0.35990  0.55690  0.24370  Biso   1.000  O
  O16      1.0000 0.41930  0.69730  0.18120  Biso   1.000  O
  F15      1.0000 0.86030  0.56100  0.76650  Biso   1.000  F
  F16      1.0000 0.93320  0.68480  0.73810  Biso   1.000  F
  F17      1.0000 0.79220  0.68640  0.81800  Biso   1.000  F
  F18      1.0000 0.83790  0.00620  0.21780  Biso   1.000  F
  F19      1.0000 0.72840  0.95690  0.14840  Biso   1.000  F
  F20      1.0000 0.88150  0.84970  0.22120  Biso   1.000  F
  F21      1.0000 0.74460  0.30100  0.17100  Biso   1.000  F
  F22      1.0000 0.75340  0.19930  0.31300  Biso   1.000  F
  F23      1.0000 0.85830  0.29290  0.28860  Biso   1.000  F
  F24      1.0000 0.16450  0.70630  0.15530  Biso   1.000  F
  F25      1.0000 0.24370  0.79620  0.06750  Biso   1.000  F
  F26      1.0000 0.27810  0.67900  0.03630  Biso   1.000  F
  Ag7      1.0000 0.62257  0.94307  0.50846  Biso   1.000  Ag
  Ag8      1.0000 0.46778  0.83083  0.61170  Biso   1.000  Ag
  Ag9      1.0000 0.61071  0.75318  0.47134  Biso   1.000  Ag
  Ag10     1.0000 0.42256  0.68793  0.41923  Biso   1.000  Ag
  Ag11     1.0000 0.57632  0.61775  0.28357  Biso   1.000  Ag
  Ag12     1.0000 0.46142  0.46876  0.38816  Biso   1.000  Ag
  F27      1.0000 0.78600  0.33400  0.16300  Biso   1.000  F
  F28      1.0000 0.23870  0.64400  0.06100  Biso   1.000  F
