data_image0
_cell_length_a       12.072
_cell_length_b       14.124
_cell_length_c       14.338
_cell_angle_alpha    104.16
_cell_angle_beta     104.51
_cell_angle_gamma    114.4

_symmetry_space_group_name_H-M    "P 1"
_symmetry_int_tables_number       1

loop_
  _symmetry_equiv_pos_as_xyz
  'x, y, z'

loop_
  _atom_site_label
  _atom_site_occupancy
  _atom_site_fract_x
  _atom_site_fract_y
  _atom_site_fract_z
  _atom_site_thermal_displace_type
  _atom_site_B_iso_or_equiv
  _atom_site_type_symbol
  C1       1.0000 0.29510  0.80580  0.82530  Biso   1.000  C
  C2       1.0000 0.32970  0.78870  0.91710  Biso   1.000  C
  H1       1.0000 0.37150  0.84900  0.98180  Biso   1.000  H
  C3       1.0000 0.30190  0.68130  0.91220  Biso   1.000  C
  H2       1.0000 0.32510  0.66990  0.97370  Biso   1.000  H
  C4       1.0000 0.23940  0.59120  0.81550  Biso   1.000  C
  C5       1.0000 0.20480  0.60830  0.72370  Biso   1.000  C
  H3       1.0000 0.16300  0.54800  0.65900  Biso   1.000  H
  C6       1.0000 0.23260  0.71570  0.72850  Biso   1.000  C
  H4       1.0000 0.20940  0.72720  0.66710  Biso   1.000  H
  C7       1.0000 0.20260  0.94270  0.94910  Biso   1.000  C
  C8       1.0000 0.24550  0.90800  0.02540  Biso   1.000  C
  H5       1.0000 0.32680  0.91110  0.04000  Biso   1.000  H
  C9       1.0000 0.16560  0.86580  0.08510  Biso   1.000  C
  H6       1.0000 0.19740  0.84530  0.13830  Biso   1.000  H
  C10      1.0000 0.05130  0.85830  0.06130  Biso   1.000  C
  C11      1.0000 0.00320  0.89430  0.00340  Biso   1.000  C
  H7       1.0000 0.92530  0.89440  0.99980  Biso   1.000  H
  C12      1.0000 0.08280  0.94330  0.93100  Biso   1.000  C
  H8       1.0000 0.05070  0.96880  0.88270  Biso   1.000  H
  C13      1.0000 0.46260  0.26820  0.86580  Biso   1.000  C
  C14      1.0000 0.41250  0.14740  0.85330  Biso   1.000  C
  C15      1.0000 0.45510  0.08370  0.79750  Biso   1.000  C
  H9       1.0000 0.51140  0.11500  0.76600  Biso   1.000  H
  C16      1.0000 0.41300  0.97390  0.78940  Biso   1.000  C
  H10      1.0000 0.44020  0.93150  0.75090  Biso   1.000  H
  C17      1.0000 0.33060  0.92490  0.83760  Biso   1.000  C
  C18      1.0000 0.28780  0.98850  0.89340  Biso   1.000  C
  C19      1.0000 0.32770  0.09940  0.89840  Biso   1.000  C
  H11      1.0000 0.29620  0.14080  0.93270  Biso   1.000  H
  C20      1.0000 0.96700  0.81190  0.11910  Biso   1.000  C
  C21      1.0000 0.22070  0.47820  0.81140  Biso   1.000  C
  C22      1.0000 0.09130  0.99230  0.62520  Biso   1.000  C
  C23      1.0000 0.00240  0.92860  0.65960  Biso   1.000  C
  H12      1.0000 0.98290  0.96230  0.71270  Biso   1.000  H
  C24      1.0000 0.94270  0.81120  0.61140  Biso   1.000  C
  H13      1.0000 0.88240  0.76560  0.63310  Biso   1.000  H
  C25      1.0000 0.97140  0.76060  0.53120  Biso   1.000  C
  H14      1.0000 0.92970  0.68210  0.50070  Biso   1.000  H
  C26      1.0000 0.05870  0.82320  0.49690  Biso   1.000  C
  H15      1.0000 0.07750  0.78930  0.44350  Biso   1.000  H
  C27      1.0000 0.11890  0.94030  0.54480  Biso   1.000  C
  C28      1.0000 0.23380  0.12620  0.59670  Biso   1.000  C
  C29      1.0000 0.32170  0.23870  0.60630  Biso   1.000  C
  C30      1.0000 0.41000  0.27670  0.56410  Biso   1.000  C
  H16      1.0000 0.42820  0.23080  0.51940  Biso   1.000  H
  C31      1.0000 0.39340  0.42070  0.67630  Biso   1.000  C
  H17      1.0000 0.40090  0.48750  0.71610  Biso   1.000  H
  C32      1.0000 0.25550  0.00790  0.44300  Biso   1.000  C
  H18      1.0000 0.26860  0.06810  0.41810  Biso   1.000  H
  H19      1.0000 0.18690  0.93710  0.38500  Biso   1.000  H
  C33      1.0000 0.38410  0.00480  0.47470  Biso   1.000  C
  C34      1.0000 0.40950  0.95310  0.54170  Biso   1.000  C
  H20      1.0000 0.34850  0.92010  0.56910  Biso   1.000  H
  C35      1.0000 0.47280  0.04850  0.43290  Biso   1.000  C
  H21      1.0000 0.45410  0.08040  0.38600  Biso   1.000  H
  Cd1      1.0000 0.18790  0.26569  0.77799  Biso   1.000  Cd
  N1       1.0000 0.31450  0.32420  0.67320  Biso   1.000  N
  N2       1.0000 0.16510  0.10890  0.65640  Biso   1.000  N
  N3       1.0000 0.20860  0.02550  0.52690  Biso   1.000  N
  O1       1.0000 0.40230  0.31450  0.90090  Biso   1.000  O
  O2       1.0000 0.55860  0.31740  0.84400  Biso   1.000  O
  O3       1.0000 0.01510  0.84840  0.21290  Biso   1.000  O
  O4       1.0000 0.85070  0.73800  0.06840  Biso   1.000  O
  O5       1.0000 0.30900  0.47200  0.87520  Biso   1.000  O
  O6       1.0000 0.11910  0.39180  0.74300  Biso   1.000  O
  S1       1.0000 0.48360  0.41800  0.60230  Biso   1.000  S
  C36      1.0000 0.20430  0.94350  0.95140  Biso   1.000  C
  C37      1.0000 0.25040  0.99880  0.05590  Biso   1.000  C
  H22      1.0000 0.33250  0.06500  0.09180  Biso   1.000  H
  C38      1.0000 0.17220  0.95490  0.11020  Biso   1.000  C
  H23      1.0000 0.20560  0.99260  0.18250  Biso   1.000  H
  C39      1.0000 0.04860  0.85850  0.06040  Biso   1.000  C
  C40      1.0000 0.00870  0.80220  0.94880  Biso   1.000  C
  H24      1.0000 0.92770  0.73510  0.91120  Biso   1.000  H
  C41      1.0000 0.08600  0.84400  0.89580  Biso   1.000  C
  H25      1.0000 0.05830  0.80540  0.82420  Biso   1.000  H
  C42      1.0000 0.29750  0.81140  0.83490  Biso   1.000  C
  C43      1.0000 0.40140  0.79230  0.87770  Biso   1.000  C
  H26      1.0000 0.48820  0.85280  0.91020  Biso   1.000  H
  C44      1.0000 0.37840  0.68800  0.87280  Biso   1.000  C
  H27      1.0000 0.44910  0.67880  0.90250  Biso   1.000  H
  C45      1.0000 0.24950  0.59460  0.82390  Biso   1.000  C
  C46      1.0000 0.14620  0.61350  0.78650  Biso   1.000  C
  H28      1.0000 0.05930  0.55380  0.75790  Biso   1.000  H
  C47      1.0000 0.17070  0.72280  0.79090  Biso   1.000  C
  H29      1.0000 0.10030  0.73340  0.76380  Biso   1.000  H
  C48      1.0000 0.70490  0.19420  0.17470  Biso   1.000  C
  C49      1.0000 0.67030  0.21130  0.08290  Biso   1.000  C
  H30      1.0000 0.62850  0.15100  0.01820  Biso   1.000  H
  C50      1.0000 0.69810  0.31870  0.08780  Biso   1.000  C
  H31      1.0000 0.67490  0.33010  0.02630  Biso   1.000  H
  C51      1.0000 0.76060  0.40880  0.18450  Biso   1.000  C
  C52      1.0000 0.79520  0.39170  0.27630  Biso   1.000  C
  H32      1.0000 0.83700  0.45200  0.34100  Biso   1.000  H
  C53      1.0000 0.76740  0.28430  0.27150  Biso   1.000  C
  H33      1.0000 0.79060  0.27280  0.33290  Biso   1.000  H
  C54      1.0000 0.79740  0.05730  0.05090  Biso   1.000  C
  C55      1.0000 0.75450  0.09200  0.97460  Biso   1.000  C
  H34      1.0000 0.67320  0.08890  0.96000  Biso   1.000  H
  C56      1.0000 0.83440  0.13420  0.91490  Biso   1.000  C
  H35      1.0000 0.80260  0.15470  0.86170  Biso   1.000  H
  C57      1.0000 0.94870  0.14170  0.93870  Biso   1.000  C
  C58      1.0000 0.99680  0.10570  0.99660  Biso   1.000  C
  H36      1.0000 0.07470  0.10560  0.00020  Biso   1.000  H
  C59      1.0000 0.91720  0.05670  0.06900  Biso   1.000  C
  H37      1.0000 0.94930  0.03120  0.11730  Biso   1.000  H
  C60      1.0000 0.53740  0.73180  0.13420  Biso   1.000  C
  C61      1.0000 0.58750  0.85260  0.14670  Biso   1.000  C
  C62      1.0000 0.54490  0.91630  0.20250  Biso   1.000  C
  H38      1.0000 0.48860  0.88500  0.23400  Biso   1.000  H
  C63      1.0000 0.58700  0.02610  0.21060  Biso   1.000  C
  H39      1.0000 0.55980  0.06850  0.24910  Biso   1.000  H
  C64      1.0000 0.66940  0.07510  0.16240  Biso   1.000  C
  C65      1.0000 0.71220  0.01150  0.10660  Biso   1.000  C
  C66      1.0000 0.67230  0.90060  0.10160  Biso   1.000  C
  H40      1.0000 0.70380  0.85920  0.06730  Biso   1.000  H
  C67      1.0000 0.03300  0.18810  0.88090  Biso   1.000  C
  C68      1.0000 0.77930  0.52180  0.18860  Biso   1.000  C
  C69      1.0000 0.90870  0.00770  0.37480  Biso   1.000  C
  C70      1.0000 0.99760  0.07140  0.34040  Biso   1.000  C
  H41      1.0000 0.01710  0.03770  0.28730  Biso   1.000  H
  C71      1.0000 0.05730  0.18880  0.38860  Biso   1.000  C
  H42      1.0000 0.11760  0.23440  0.36690  Biso   1.000  H
  C72      1.0000 0.02860  0.23940  0.46880  Biso   1.000  C
  H43      1.0000 0.07030  0.31790  0.49930  Biso   1.000  H
  C73      1.0000 0.94130  0.17680  0.50310  Biso   1.000  C
  H44      1.0000 0.92250  0.21070  0.55650  Biso   1.000  H
  C74      1.0000 0.88110  0.05970  0.45520  Biso   1.000  C
  C75      1.0000 0.76620  0.87380  0.40330  Biso   1.000  C
  C76      1.0000 0.67830  0.76130  0.39370  Biso   1.000  C
  C77      1.0000 0.59000  0.72330  0.43590  Biso   1.000  C
  H45      1.0000 0.57180  0.76920  0.48060  Biso   1.000  H
  C78      1.0000 0.60660  0.57930  0.32370  Biso   1.000  C
  H46      1.0000 0.59910  0.51250  0.28390  Biso   1.000  H
  C79      1.0000 0.74450  0.99210  0.55700  Biso   1.000  C
  H47      1.0000 0.73140  0.93190  0.58190  Biso   1.000  H
  H48      1.0000 0.81310  0.06290  0.61500  Biso   1.000  H
  C80      1.0000 0.61590  0.99520  0.52530  Biso   1.000  C
  C81      1.0000 0.59050  0.04690  0.45830  Biso   1.000  C
  H49      1.0000 0.65150  0.07990  0.43090  Biso   1.000  H
  C82      1.0000 0.52720  0.95150  0.56710  Biso   1.000  C
  H50      1.0000 0.54590  0.91960  0.61400  Biso   1.000  H
  Cd2      1.0000 0.81210  0.73431  0.22201  Biso   1.000  Cd
  N4       1.0000 0.68550  0.67580  0.32680  Biso   1.000  N
  N5       1.0000 0.83490  0.89110  0.34360  Biso   1.000  N
  N6       1.0000 0.79140  0.97450  0.47310  Biso   1.000  N
  O7       1.0000 0.59770  0.68550  0.09910  Biso   1.000  O
  O8       1.0000 0.44140  0.68260  0.15600  Biso   1.000  O
  O9       1.0000 0.98490  0.15160  0.78710  Biso   1.000  O
  O10      1.0000 0.14930  0.26200  0.93160  Biso   1.000  O
  O11      1.0000 0.69100  0.52800  0.12480  Biso   1.000  O
  O12      1.0000 0.88090  0.60820  0.25700  Biso   1.000  O
  S2       1.0000 0.51640  0.58200  0.39770  Biso   1.000  S
  C83      1.0000 0.79570  0.05650  0.04860  Biso   1.000  C
  C84      1.0000 0.74960  0.00120  0.94410  Biso   1.000  C
  H51      1.0000 0.66750  0.93500  0.90820  Biso   1.000  H
  C85      1.0000 0.82780  0.04510  0.88980  Biso   1.000  C
  H52      1.0000 0.79440  0.00740  0.81750  Biso   1.000  H
  C86      1.0000 0.95140  0.14150  0.93960  Biso   1.000  C
  C87      1.0000 0.99130  0.19780  0.05120  Biso   1.000  C
  H53      1.0000 0.07230  0.26490  0.08880  Biso   1.000  H
  C88      1.0000 0.91400  0.15600  0.10420  Biso   1.000  C
  H54      1.0000 0.94170  0.19460  0.17580  Biso   1.000  H
  C89      1.0000 0.70250  0.18860  0.16510  Biso   1.000  C
  C90      1.0000 0.59860  0.20770  0.12230  Biso   1.000  C
  H55      1.0000 0.51180  0.14720  0.08980  Biso   1.000  H
  C91      1.0000 0.62160  0.31200  0.12720  Biso   1.000  C
  H56      1.0000 0.55090  0.32120  0.09750  Biso   1.000  H
  C92      1.0000 0.75050  0.40540  0.17610  Biso   1.000  C
  C93      1.0000 0.85380  0.38650  0.21350  Biso   1.000  C
  H57      1.0000 0.94070  0.44620  0.24210  Biso   1.000  H
  C94      1.0000 0.82930  0.27720  0.20910  Biso   1.000  C
  H58      1.0000 0.89970  0.26660  0.23620  Biso   1.000  H
  Cd3      1.0000 0.50000  0.50000  0.00000  Biso   1.000  Cd
