data_image0
_cell_length_a       14.9438
_cell_length_b       14.9438
_cell_length_c       10.129
_cell_angle_alpha    90
_cell_angle_beta     90
_cell_angle_gamma    90

_symmetry_space_group_name_H-M    "P 1"
_symmetry_int_tables_number       1

loop_
  _symmetry_equiv_pos_as_xyz
  'x, y, z'

loop_
  _atom_site_label
  _atom_site_occupancy
  _atom_site_fract_x
  _atom_site_fract_y
  _atom_site_fract_z
  _atom_site_thermal_displace_type
  _atom_site_B_iso_or_equiv
  _atom_site_type_symbol
  C1       1.0000 0.06440  0.40330  0.11870  Biso   1.000  C
  C2       1.0000 0.11190  0.42300  0.24620  Biso   1.000  C
  C3       1.0000 0.97850  0.36900  0.11840  Biso   1.000  C
  H1       1.0000 0.94980  0.35770  0.19820  Biso   1.000  H
  C4       1.0000 0.81860  0.25330  0.89770  Biso   1.000  C
  H2       1.0000 0.85900  0.23810  0.83170  Biso   1.000  H
  C5       1.0000 0.73380  0.21760  0.89930  Biso   1.000  C
  H3       1.0000 0.71640  0.17960  0.83130  Biso   1.000  H
  O1       1.0000 0.06990  0.40720  0.35250  Biso   1.000  O
  O2       1.0000 0.18960  0.45250  0.24370  Biso   1.000  O
  C6       1.0000 0.69480  0.29380  0.91560  Biso   1.000  C
  H4       1.0000 0.65250  0.31060  0.85310  Biso   1.000  H
  C7       1.0000 0.77990  0.33410  0.90980  Biso   1.000  C
  H5       1.0000 0.79270  0.37490  0.84300  Biso   1.000  H
  C8       1.0000 0.93560  0.59670  0.11870  Biso   1.000  C
  C9       1.0000 0.88810  0.57700  0.24620  Biso   1.000  C
  C10      1.0000 0.02150  0.63100  0.11840  Biso   1.000  C
  H6       1.0000 0.05020  0.64230  0.19820  Biso   1.000  H
  C11      1.0000 0.18140  0.74670  0.89770  Biso   1.000  C
  H7       1.0000 0.14100  0.76190  0.83170  Biso   1.000  H
  C12      1.0000 0.26620  0.78240  0.89930  Biso   1.000  C
  H8       1.0000 0.28360  0.82040  0.83130  Biso   1.000  H
  O3       1.0000 0.93010  0.59280  0.35250  Biso   1.000  O
  O4       1.0000 0.81040  0.54750  0.24370  Biso   1.000  O
  C13      1.0000 0.30520  0.70620  0.91560  Biso   1.000  C
  H9       1.0000 0.34750  0.68940  0.85310  Biso   1.000  H
  C14      1.0000 0.22010  0.66590  0.90980  Biso   1.000  C
  H10      1.0000 0.20730  0.62510  0.84300  Biso   1.000  H
  C15      1.0000 0.59670  0.06440  0.61870  Biso   1.000  C
  C16      1.0000 0.57700  0.11190  0.74620  Biso   1.000  C
  C17      1.0000 0.63100  0.97850  0.61840  Biso   1.000  C
  H11      1.0000 0.64230  0.94980  0.69820  Biso   1.000  H
  C18      1.0000 0.74670  0.81860  0.39770  Biso   1.000  C
  H12      1.0000 0.76190  0.85900  0.33170  Biso   1.000  H
  C19      1.0000 0.78240  0.73380  0.39930  Biso   1.000  C
  H13      1.0000 0.82040  0.71640  0.33130  Biso   1.000  H
  O5       1.0000 0.59280  0.06990  0.85250  Biso   1.000  O
  O6       1.0000 0.54750  0.18960  0.74370  Biso   1.000  O
  C20      1.0000 0.70620  0.69480  0.41560  Biso   1.000  C
  H14      1.0000 0.68940  0.65250  0.35310  Biso   1.000  H
  C21      1.0000 0.66590  0.77990  0.40980  Biso   1.000  C
  H15      1.0000 0.62510  0.79270  0.34300  Biso   1.000  H
  C22      1.0000 0.40330  0.93560  0.61870  Biso   1.000  C
  C23      1.0000 0.42300  0.88810  0.74620  Biso   1.000  C
  C24      1.0000 0.36900  0.02150  0.61840  Biso   1.000  C
  H16      1.0000 0.35770  0.05020  0.69820  Biso   1.000  H
  C25      1.0000 0.25330  0.18140  0.39770  Biso   1.000  C
  H17      1.0000 0.23810  0.14100  0.33170  Biso   1.000  H
  C26      1.0000 0.21760  0.26620  0.39930  Biso   1.000  C
  H18      1.0000 0.17960  0.28360  0.33130  Biso   1.000  H
  O7       1.0000 0.40720  0.93010  0.85250  Biso   1.000  O
  O8       1.0000 0.45250  0.81040  0.74370  Biso   1.000  O
  C27      1.0000 0.29380  0.30520  0.41560  Biso   1.000  C
  H19      1.0000 0.31060  0.34750  0.35310  Biso   1.000  H
  C28      1.0000 0.33410  0.22010  0.40980  Biso   1.000  C
  H20      1.0000 0.37490  0.20730  0.34300  Biso   1.000  H
  C29      1.0000 0.93560  0.59670  0.88130  Biso   1.000  C
  C30      1.0000 0.88810  0.57700  0.75380  Biso   1.000  C
  C31      1.0000 0.02150  0.63100  0.88160  Biso   1.000  C
  H21      1.0000 0.05020  0.64230  0.80180  Biso   1.000  H
  C32      1.0000 0.18140  0.74670  0.10230  Biso   1.000  C
  H22      1.0000 0.14100  0.76190  0.16830  Biso   1.000  H
  C33      1.0000 0.26620  0.78240  0.10070  Biso   1.000  C
  H23      1.0000 0.28360  0.82040  0.16870  Biso   1.000  H
  O9       1.0000 0.93010  0.59280  0.64750  Biso   1.000  O
  O10      1.0000 0.81040  0.54750  0.75630  Biso   1.000  O
  C34      1.0000 0.30520  0.70620  0.08440  Biso   1.000  C
  H24      1.0000 0.34750  0.68940  0.14690  Biso   1.000  H
  C35      1.0000 0.22010  0.66590  0.09020  Biso   1.000  C
  H25      1.0000 0.20730  0.62510  0.15700  Biso   1.000  H
  C36      1.0000 0.06440  0.40330  0.88130  Biso   1.000  C
  C37      1.0000 0.11190  0.42300  0.75380  Biso   1.000  C
  C38      1.0000 0.97850  0.36900  0.88160  Biso   1.000  C
  H26      1.0000 0.94980  0.35770  0.80180  Biso   1.000  H
  C39      1.0000 0.81860  0.25330  0.10230  Biso   1.000  C
  H27      1.0000 0.85900  0.23810  0.16830  Biso   1.000  H
  C40      1.0000 0.73380  0.21760  0.10070  Biso   1.000  C
  H28      1.0000 0.71640  0.17960  0.16870  Biso   1.000  H
  O11      1.0000 0.06990  0.40720  0.64750  Biso   1.000  O
  O12      1.0000 0.18960  0.45250  0.75630  Biso   1.000  O
  C41      1.0000 0.69480  0.29380  0.08440  Biso   1.000  C
  H29      1.0000 0.65250  0.31060  0.14690  Biso   1.000  H
  C42      1.0000 0.77990  0.33410  0.09020  Biso   1.000  C
  H30      1.0000 0.79270  0.37490  0.15700  Biso   1.000  H
  C43      1.0000 0.40330  0.93560  0.38130  Biso   1.000  C
  C44      1.0000 0.42300  0.88810  0.25380  Biso   1.000  C
  C45      1.0000 0.36900  0.02150  0.38160  Biso   1.000  C
  H31      1.0000 0.35770  0.05020  0.30180  Biso   1.000  H
  C46      1.0000 0.25330  0.18140  0.60230  Biso   1.000  C
  H32      1.0000 0.23810  0.14100  0.66830  Biso   1.000  H
  C47      1.0000 0.21760  0.26620  0.60070  Biso   1.000  C
  H33      1.0000 0.17960  0.28360  0.66870  Biso   1.000  H
  O13      1.0000 0.40720  0.93010  0.14750  Biso   1.000  O
  O14      1.0000 0.45250  0.81040  0.25630  Biso   1.000  O
  C48      1.0000 0.29380  0.30520  0.58440  Biso   1.000  C
  H34      1.0000 0.31060  0.34750  0.64690  Biso   1.000  H
  C49      1.0000 0.33410  0.22010  0.59020  Biso   1.000  C
  H35      1.0000 0.37490  0.20730  0.65700  Biso   1.000  H
  C50      1.0000 0.59670  0.06440  0.38130  Biso   1.000  C
  C51      1.0000 0.57700  0.11190  0.25380  Biso   1.000  C
  C52      1.0000 0.63100  0.97850  0.38160  Biso   1.000  C
  H36      1.0000 0.64230  0.94980  0.30180  Biso   1.000  H
  C53      1.0000 0.74670  0.81860  0.60230  Biso   1.000  C
  H37      1.0000 0.76190  0.85900  0.66830  Biso   1.000  H
  C54      1.0000 0.78240  0.73380  0.60070  Biso   1.000  C
  H38      1.0000 0.82040  0.71640  0.66870  Biso   1.000  H
  O15      1.0000 0.59280  0.06990  0.14750  Biso   1.000  O
  O16      1.0000 0.54750  0.18960  0.25630  Biso   1.000  O
  C55      1.0000 0.70620  0.69480  0.58440  Biso   1.000  C
  H39      1.0000 0.68940  0.65250  0.64690  Biso   1.000  H
  C56      1.0000 0.66590  0.77990  0.59020  Biso   1.000  C
  H40      1.0000 0.62510  0.79270  0.65700  Biso   1.000  H
  Zn1      1.0000 0.56338  0.15412  0.00000  Biso   1.000  Zn
  C57      1.0000 0.37120  0.12460  0.00000  Biso   1.000  C
  H41      1.0000 0.38200  0.06330  0.00000  Biso   1.000  H
  C58      1.0000 0.30300  0.25080  0.00000  Biso   1.000  C
  H42      1.0000 0.25890  0.29480  0.00000  Biso   1.000  H
  C59      1.0000 0.39090  0.26420  0.00000  Biso   1.000  C
  H43      1.0000 0.41890  0.31980  0.00000  Biso   1.000  H
  C60      1.0000 0.20650  0.11510  0.00000  Biso   1.000  C
  C61      1.0000 0.20300  0.02410  0.00000  Biso   1.000  C
  H44      1.0000 0.25570  0.99090  0.00000  Biso   1.000  H
  C62      1.0000 0.12320  0.98220  0.00000  Biso   1.000  C
  H45      1.0000 0.12350  0.92000  0.00000  Biso   1.000  H
  C63      1.0000 0.04220  0.02390  0.00000  Biso   1.000  C
  C64      1.0000 0.04860  0.11480  0.00000  Biso   1.000  C
  H46      1.0000 0.99590  0.14790  0.00000  Biso   1.000  H
  C65      1.0000 0.12700  0.15970  0.00000  Biso   1.000  C
  H47      1.0000 0.12670  0.22190  0.00000  Biso   1.000  H
  C66      1.0000 0.93440  0.35130  0.00000  Biso   1.000  C
  C67      1.0000 0.10760  0.42090  0.00000  Biso   1.000  C
  H48      1.0000 0.16520  0.44450  0.00000  Biso   1.000  H
  C68      1.0000 0.84290  0.31410  0.00000  Biso   1.000  C
  N1       1.0000 0.67300  0.23680  0.00000  Biso   1.000  N
  N2       1.0000 0.43310  0.18450  0.00000  Biso   1.000  N
  N3       1.0000 0.28950  0.16110  0.00000  Biso   1.000  N
  Zn2      1.0000 0.43662  0.84588  0.00000  Biso   1.000  Zn
  C69      1.0000 0.62880  0.87540  0.00000  Biso   1.000  C
  H49      1.0000 0.61800  0.93670  0.00000  Biso   1.000  H
  C70      1.0000 0.69700  0.74920  0.00000  Biso   1.000  C
  H50      1.0000 0.74110  0.70520  0.00000  Biso   1.000  H
  C71      1.0000 0.60910  0.73580  0.00000  Biso   1.000  C
  H51      1.0000 0.58110  0.68020  0.00000  Biso   1.000  H
  C72      1.0000 0.79350  0.88490  0.00000  Biso   1.000  C
  C73      1.0000 0.79700  0.97590  0.00000  Biso   1.000  C
  H52      1.0000 0.74430  0.00910  0.00000  Biso   1.000  H
  C74      1.0000 0.87680  0.01780  0.00000  Biso   1.000  C
  H53      1.0000 0.87650  0.08000  0.00000  Biso   1.000  H
  C75      1.0000 0.95780  0.97610  0.00000  Biso   1.000  C
  C76      1.0000 0.95140  0.88520  0.00000  Biso   1.000  C
  H54      1.0000 0.00410  0.85210  0.00000  Biso   1.000  H
  C77      1.0000 0.87300  0.84030  0.00000  Biso   1.000  C
  H55      1.0000 0.87330  0.77810  0.00000  Biso   1.000  H
  C78      1.0000 0.06560  0.64870  0.00000  Biso   1.000  C
  C79      1.0000 0.89240  0.57910  0.00000  Biso   1.000  C
  H56      1.0000 0.83480  0.55550  0.00000  Biso   1.000  H
  C80      1.0000 0.15710  0.68590  0.00000  Biso   1.000  C
  N4       1.0000 0.32700  0.76320  0.00000  Biso   1.000  N
  N5       1.0000 0.56690  0.81550  0.00000  Biso   1.000  N
  N6       1.0000 0.71050  0.83890  0.00000  Biso   1.000  N
  Zn3      1.0000 0.84588  0.56338  0.50000  Biso   1.000  Zn
  C81      1.0000 0.87540  0.37120  0.50000  Biso   1.000  C
  H57      1.0000 0.93670  0.38200  0.50000  Biso   1.000  H
  C82      1.0000 0.74920  0.30300  0.50000  Biso   1.000  C
  H58      1.0000 0.70520  0.25890  0.50000  Biso   1.000  H
  C83      1.0000 0.73580  0.39090  0.50000  Biso   1.000  C
  H59      1.0000 0.68020  0.41890  0.50000  Biso   1.000  H
  C84      1.0000 0.88490  0.20650  0.50000  Biso   1.000  C
  C85      1.0000 0.97590  0.20300  0.50000  Biso   1.000  C
  H60      1.0000 0.00910  0.25570  0.50000  Biso   1.000  H
  C86      1.0000 0.01780  0.12320  0.50000  Biso   1.000  C
  H61      1.0000 0.08000  0.12350  0.50000  Biso   1.000  H
  C87      1.0000 0.97610  0.04220  0.50000  Biso   1.000  C
  C88      1.0000 0.88520  0.04860  0.50000  Biso   1.000  C
  H62      1.0000 0.85210  0.99590  0.50000  Biso   1.000  H
  C89      1.0000 0.84030  0.12700  0.50000  Biso   1.000  C
  H63      1.0000 0.77810  0.12670  0.50000  Biso   1.000  H
  C90      1.0000 0.64870  0.93440  0.50000  Biso   1.000  C
  C91      1.0000 0.57910  0.10760  0.50000  Biso   1.000  C
  H64      1.0000 0.55550  0.16520  0.50000  Biso   1.000  H
  C92      1.0000 0.68590  0.84290  0.50000  Biso   1.000  C
  N7       1.0000 0.76320  0.67300  0.50000  Biso   1.000  N
  N8       1.0000 0.81550  0.43310  0.50000  Biso   1.000  N
  N9       1.0000 0.83890  0.28950  0.50000  Biso   1.000  N
  Zn4      1.0000 0.15412  0.43662  0.50000  Biso   1.000  Zn
  C93      1.0000 0.12460  0.62880  0.50000  Biso   1.000  C
  H65      1.0000 0.06330  0.61800  0.50000  Biso   1.000  H
  C94      1.0000 0.25080  0.69700  0.50000  Biso   1.000  C
  H66      1.0000 0.29480  0.74110  0.50000  Biso   1.000  H
  C95      1.0000 0.26420  0.60910  0.50000  Biso   1.000  C
  H67      1.0000 0.31980  0.58110  0.50000  Biso   1.000  H
  C96      1.0000 0.11510  0.79350  0.50000  Biso   1.000  C
  C97      1.0000 0.02410  0.79700  0.50000  Biso   1.000  C
  H68      1.0000 0.99090  0.74430  0.50000  Biso   1.000  H
  C98      1.0000 0.98220  0.87680  0.50000  Biso   1.000  C
  H69      1.0000 0.92000  0.87650  0.50000  Biso   1.000  H
  C99      1.0000 0.02390  0.95780  0.50000  Biso   1.000  C
  C100     1.0000 0.11480  0.95140  0.50000  Biso   1.000  C
  H70      1.0000 0.14790  0.00410  0.50000  Biso   1.000  H
  C101     1.0000 0.15970  0.87300  0.50000  Biso   1.000  C
  H71      1.0000 0.22190  0.87330  0.50000  Biso   1.000  H
  C102     1.0000 0.35130  0.06560  0.50000  Biso   1.000  C
  C103     1.0000 0.42090  0.89240  0.50000  Biso   1.000  C
  H72      1.0000 0.44450  0.83480  0.50000  Biso   1.000  H
  C104     1.0000 0.31410  0.15710  0.50000  Biso   1.000  C
  N10      1.0000 0.23680  0.32700  0.50000  Biso   1.000  N
  N11      1.0000 0.18450  0.56690  0.50000  Biso   1.000  N
  N12      1.0000 0.16110  0.71050  0.50000  Biso   1.000  N
