data_image0
_cell_length_a       29.372
_cell_length_b       15.784
_cell_length_c       19.14
_cell_angle_alpha    90
_cell_angle_beta     107.16
_cell_angle_gamma    90

_symmetry_space_group_name_H-M    "P 1"
_symmetry_int_tables_number       1

loop_
  _symmetry_equiv_pos_as_xyz
  'x, y, z'

loop_
  _atom_site_label
  _atom_site_occupancy
  _atom_site_fract_x
  _atom_site_fract_y
  _atom_site_fract_z
  _atom_site_thermal_displace_type
  _atom_site_B_iso_or_equiv
  _atom_site_type_symbol
  Zn1      1.0000 0.74047  0.82928  0.53567  Biso   1.000  Zn
  Zn2      1.0000 0.58477  0.81496  0.79837  Biso   1.000  Zn
  Zn3      1.0000 0.51353  0.89549  0.82074  Biso   1.000  Zn
  O1       1.0000 0.55530  0.28880  0.36280  Biso   1.000  O
  O2       1.0000 0.53710  0.16800  0.41070  Biso   1.000  O
  O3       1.0000 0.58120  0.74990  0.70380  Biso   1.000  O
  O4       1.0000 0.53906  0.63460  0.70670  Biso   1.000  O
  O5       1.0000 0.69117  0.74840  0.55440  Biso   1.000  O
  O6       1.0000 0.70541  0.63040  0.50220  Biso   1.000  O
  O7       1.0000 0.71104  0.26820  0.88283  Biso   1.000  O
  O8       1.0000 0.69525  0.15030  0.93461  Biso   1.000  O
  O9       1.0000 0.56370  0.96950  0.81150  Biso   1.000  O
  O10      1.0000 0.53650  0.97550  0.68140  Biso   1.000  O
  C1       1.0000 0.60086  0.40460  0.57040  Biso   1.000  C
  C2       1.0000 0.60594  0.35050  0.63060  Biso   1.000  C
  H1       1.0000 0.61330  0.37340  0.67740  Biso   1.000  H
  C3       1.0000 0.60015  0.26350  0.62170  Biso   1.000  C
  C4       1.0000 0.58670  0.23050  0.55020  Biso   1.000  C
  H2       1.0000 0.58200  0.17250  0.54300  Biso   1.000  H
  C5       1.0000 0.58030  0.28350  0.49050  Biso   1.000  C
  C6       1.0000 0.58810  0.37040  0.50100  Biso   1.000  C
  H3       1.0000 0.58480  0.40560  0.46080  Biso   1.000  H
  C7       1.0000 0.60834  0.49800  0.58270  Biso   1.000  C
  C8       1.0000 0.58642  0.54150  0.62630  Biso   1.000  C
  H4       1.0000 0.56630  0.51260  0.64760  Biso   1.000  H
  C9       1.0000 0.59377  0.62810  0.63890  Biso   1.000  C
  C10      1.0000 0.62551  0.66940  0.61020  Biso   1.000  C
  H5       1.0000 0.63140  0.72680  0.61970  Biso   1.000  H
  C11      1.0000 0.64878  0.62670  0.56740  Biso   1.000  C
  C12      1.0000 0.63937  0.54060  0.55270  Biso   1.000  C
  H6       1.0000 0.65400  0.51190  0.52270  Biso   1.000  H
  C13      1.0000 0.60944  0.20660  0.68700  Biso   1.000  C
  C14      1.0000 0.64271  0.22700  0.75020  Biso   1.000  C
  H7       1.0000 0.65960  0.27740  0.75290  Biso   1.000  H
  C15      1.0000 0.65235  0.17460  0.81130  Biso   1.000  C
  C16      1.0000 0.62730  0.10020  0.80730  Biso   1.000  C
  H8       1.0000 0.63380  0.06420  0.84750  Biso   1.000  H
  C17      1.0000 0.59270  0.07910  0.74390  Biso   1.000  C
  C18      1.0000 0.58430  0.13120  0.68350  Biso   1.000  C
  H9       1.0000 0.56160  0.11590  0.64010  Biso   1.000  H
  C19      1.0000 0.55430  0.24440  0.41420  Biso   1.000  C
  C20      1.0000 0.56857  0.67500  0.68470  Biso   1.000  C
  C21      1.0000 0.68485  0.67270  0.53880  Biso   1.000  C
  C22      1.0000 0.68899  0.20030  0.88200  Biso   1.000  C
  C23      1.0000 0.55660  0.00760  0.75120  Biso   1.000  C
  Zn4      1.0000 0.51025  0.70113  0.76106  Biso   1.000  Zn
  O11      1.0000 0.57600  0.30500  0.36430  Biso   1.000  O
  O12      1.0000 0.58550  0.17560  0.40960  Biso   1.000  O
  O13      1.0000 0.56050  0.75540  0.66970  Biso   1.000  O
  O14      1.0000 0.59000  0.93960  0.78050  Biso   1.000  O
  O15      1.0000 0.51590  0.00730  0.70330  Biso   1.000  O
  C24      1.0000 0.58450  0.25390  0.41850  Biso   1.000  C
  C25      1.0000 0.57430  0.98840  0.73180  Biso   1.000  C
  Zn5      1.0000 0.24047  0.32928  0.53567  Biso   1.000  Zn
  Zn6      1.0000 0.08477  0.31496  0.79837  Biso   1.000  Zn
  Zn7      1.0000 0.01353  0.39549  0.82074  Biso   1.000  Zn
  O16      1.0000 0.05530  0.78880  0.36280  Biso   1.000  O
  O17      1.0000 0.03710  0.66800  0.41070  Biso   1.000  O
  O18      1.0000 0.08120  0.24990  0.70380  Biso   1.000  O
  O19      1.0000 0.03906  0.13460  0.70670  Biso   1.000  O
  O20      1.0000 0.19117  0.24840  0.55440  Biso   1.000  O
  O21      1.0000 0.20541  0.13040  0.50220  Biso   1.000  O
  O22      1.0000 0.21104  0.76820  0.88283  Biso   1.000  O
  O23      1.0000 0.19525  0.65030  0.93461  Biso   1.000  O
  O24      1.0000 0.06370  0.46950  0.81150  Biso   1.000  O
  O25      1.0000 0.03650  0.47550  0.68140  Biso   1.000  O
  C26      1.0000 0.10086  0.90460  0.57040  Biso   1.000  C
  C27      1.0000 0.10594  0.85050  0.63060  Biso   1.000  C
  H10      1.0000 0.11330  0.87340  0.67740  Biso   1.000  H
  C28      1.0000 0.10015  0.76350  0.62170  Biso   1.000  C
  C29      1.0000 0.08670  0.73050  0.55020  Biso   1.000  C
  H11      1.0000 0.08200  0.67250  0.54300  Biso   1.000  H
  C30      1.0000 0.08030  0.78350  0.49050  Biso   1.000  C
  C31      1.0000 0.08810  0.87040  0.50100  Biso   1.000  C
  H12      1.0000 0.08480  0.90560  0.46080  Biso   1.000  H
  C32      1.0000 0.10834  0.99800  0.58270  Biso   1.000  C
  C33      1.0000 0.08642  0.04150  0.62630  Biso   1.000  C
  H13      1.0000 0.06630  0.01260  0.64760  Biso   1.000  H
  C34      1.0000 0.09377  0.12810  0.63890  Biso   1.000  C
  C35      1.0000 0.12551  0.16940  0.61020  Biso   1.000  C
  H14      1.0000 0.13140  0.22680  0.61970  Biso   1.000  H
  C36      1.0000 0.14878  0.12670  0.56740  Biso   1.000  C
  C37      1.0000 0.13937  0.04060  0.55270  Biso   1.000  C
  H15      1.0000 0.15400  0.01190  0.52270  Biso   1.000  H
  C38      1.0000 0.10944  0.70660  0.68700  Biso   1.000  C
  C39      1.0000 0.14271  0.72700  0.75020  Biso   1.000  C
  H16      1.0000 0.15960  0.77740  0.75290  Biso   1.000  H
  C40      1.0000 0.15235  0.67460  0.81130  Biso   1.000  C
  C41      1.0000 0.12730  0.60020  0.80730  Biso   1.000  C
  H17      1.0000 0.13380  0.56420  0.84750  Biso   1.000  H
  C42      1.0000 0.09270  0.57910  0.74390  Biso   1.000  C
  C43      1.0000 0.08430  0.63120  0.68350  Biso   1.000  C
  H18      1.0000 0.06160  0.61590  0.64010  Biso   1.000  H
  C44      1.0000 0.05430  0.74440  0.41420  Biso   1.000  C
  C45      1.0000 0.06857  0.17500  0.68470  Biso   1.000  C
  C46      1.0000 0.18485  0.17270  0.53880  Biso   1.000  C
  C47      1.0000 0.18899  0.70030  0.88200  Biso   1.000  C
  C48      1.0000 0.05660  0.50760  0.75120  Biso   1.000  C
  Zn8      1.0000 0.01025  0.20113  0.76106  Biso   1.000  Zn
  O26      1.0000 0.07600  0.80500  0.36430  Biso   1.000  O
  O27      1.0000 0.08550  0.67560  0.40960  Biso   1.000  O
  O28      1.0000 0.06050  0.25540  0.66970  Biso   1.000  O
  O29      1.0000 0.09000  0.43960  0.78050  Biso   1.000  O
  O30      1.0000 0.01590  0.50730  0.70330  Biso   1.000  O
  C49      1.0000 0.08450  0.75390  0.41850  Biso   1.000  C
  C50      1.0000 0.07430  0.48840  0.73180  Biso   1.000  C
  Zn9      1.0000 0.25953  0.82928  0.96433  Biso   1.000  Zn
  Zn10     1.0000 0.41523  0.81496  0.70163  Biso   1.000  Zn
  Zn11     1.0000 0.48647  0.89549  0.67926  Biso   1.000  Zn
  O31      1.0000 0.44470  0.28880  0.13720  Biso   1.000  O
  O32      1.0000 0.46290  0.16800  0.08930  Biso   1.000  O
  O33      1.0000 0.41880  0.74990  0.79620  Biso   1.000  O
  O34      1.0000 0.46094  0.63460  0.79330  Biso   1.000  O
  O35      1.0000 0.30883  0.74840  0.94560  Biso   1.000  O
  O36      1.0000 0.29459  0.63040  0.99780  Biso   1.000  O
  O37      1.0000 0.28896  0.26820  0.61717  Biso   1.000  O
  O38      1.0000 0.30475  0.15030  0.56539  Biso   1.000  O
  O39      1.0000 0.43630  0.96950  0.68850  Biso   1.000  O
  O40      1.0000 0.46350  0.97550  0.81860  Biso   1.000  O
  C51      1.0000 0.39914  0.40460  0.92960  Biso   1.000  C
  C52      1.0000 0.39406  0.35050  0.86940  Biso   1.000  C
  H19      1.0000 0.38670  0.37340  0.82260  Biso   1.000  H
  C53      1.0000 0.39985  0.26350  0.87830  Biso   1.000  C
  C54      1.0000 0.41330  0.23050  0.94980  Biso   1.000  C
  H20      1.0000 0.41800  0.17250  0.95700  Biso   1.000  H
  C55      1.0000 0.41970  0.28350  0.00950  Biso   1.000  C
  C56      1.0000 0.41190  0.37040  0.99900  Biso   1.000  C
  H21      1.0000 0.41520  0.40560  0.03920  Biso   1.000  H
  C57      1.0000 0.39166  0.49800  0.91730  Biso   1.000  C
  C58      1.0000 0.41358  0.54150  0.87370  Biso   1.000  C
  H22      1.0000 0.43370  0.51260  0.85240  Biso   1.000  H
  C59      1.0000 0.40623  0.62810  0.86110  Biso   1.000  C
  C60      1.0000 0.37449  0.66940  0.88980  Biso   1.000  C
  H23      1.0000 0.36860  0.72680  0.88030  Biso   1.000  H
  C61      1.0000 0.35122  0.62670  0.93260  Biso   1.000  C
  C62      1.0000 0.36063  0.54060  0.94730  Biso   1.000  C
  H24      1.0000 0.34600  0.51190  0.97730  Biso   1.000  H
  C63      1.0000 0.39056  0.20660  0.81300  Biso   1.000  C
  C64      1.0000 0.35729  0.22700  0.74980  Biso   1.000  C
  H25      1.0000 0.34040  0.27740  0.74710  Biso   1.000  H
  C65      1.0000 0.34765  0.17460  0.68870  Biso   1.000  C
  C66      1.0000 0.37270  0.10020  0.69270  Biso   1.000  C
  H26      1.0000 0.36620  0.06420  0.65250  Biso   1.000  H
  C67      1.0000 0.40730  0.07910  0.75610  Biso   1.000  C
  C68      1.0000 0.41570  0.13120  0.81650  Biso   1.000  C
  H27      1.0000 0.43840  0.11590  0.85990  Biso   1.000  H
  C69      1.0000 0.44570  0.24440  0.08580  Biso   1.000  C
  C70      1.0000 0.43143  0.67500  0.81530  Biso   1.000  C
  C71      1.0000 0.31515  0.67270  0.96120  Biso   1.000  C
  C72      1.0000 0.31101  0.20030  0.61800  Biso   1.000  C
  C73      1.0000 0.44340  0.00760  0.74880  Biso   1.000  C
  Zn12     1.0000 0.48975  0.70113  0.73894  Biso   1.000  Zn
  O41      1.0000 0.42400  0.30500  0.13570  Biso   1.000  O
  O42      1.0000 0.41450  0.17560  0.09040  Biso   1.000  O
  O43      1.0000 0.43950  0.75540  0.83030  Biso   1.000  O
  O44      1.0000 0.41000  0.93960  0.71950  Biso   1.000  O
  O45      1.0000 0.48410  0.00730  0.79670  Biso   1.000  O
  C74      1.0000 0.41550  0.25390  0.08150  Biso   1.000  C
  C75      1.0000 0.42570  0.98840  0.76820  Biso   1.000  C
  Zn13     1.0000 0.75953  0.32928  0.96433  Biso   1.000  Zn
  Zn14     1.0000 0.91523  0.31496  0.70163  Biso   1.000  Zn
  Zn15     1.0000 0.98647  0.39549  0.67926  Biso   1.000  Zn
  O46      1.0000 0.94470  0.78880  0.13720  Biso   1.000  O
  O47      1.0000 0.96290  0.66800  0.08930  Biso   1.000  O
  O48      1.0000 0.91880  0.24990  0.79620  Biso   1.000  O
  O49      1.0000 0.96094  0.13460  0.79330  Biso   1.000  O
  O50      1.0000 0.80883  0.24840  0.94560  Biso   1.000  O
  O51      1.0000 0.79459  0.13040  0.99780  Biso   1.000  O
  O52      1.0000 0.78896  0.76820  0.61717  Biso   1.000  O
  O53      1.0000 0.80475  0.65030  0.56539  Biso   1.000  O
  O54      1.0000 0.93630  0.46950  0.68850  Biso   1.000  O
  O55      1.0000 0.96350  0.47550  0.81860  Biso   1.000  O
  C76      1.0000 0.89914  0.90460  0.92960  Biso   1.000  C
  C77      1.0000 0.89406  0.85050  0.86940  Biso   1.000  C
  H28      1.0000 0.88670  0.87340  0.82260  Biso   1.000  H
  C78      1.0000 0.89985  0.76350  0.87830  Biso   1.000  C
  C79      1.0000 0.91330  0.73050  0.94980  Biso   1.000  C
  H29      1.0000 0.91800  0.67250  0.95700  Biso   1.000  H
  C80      1.0000 0.91970  0.78350  0.00950  Biso   1.000  C
  C81      1.0000 0.91190  0.87040  0.99900  Biso   1.000  C
  H30      1.0000 0.91520  0.90560  0.03920  Biso   1.000  H
  C82      1.0000 0.89166  0.99800  0.91730  Biso   1.000  C
  C83      1.0000 0.91358  0.04150  0.87370  Biso   1.000  C
  H31      1.0000 0.93370  0.01260  0.85240  Biso   1.000  H
  C84      1.0000 0.90623  0.12810  0.86110  Biso   1.000  C
  C85      1.0000 0.87449  0.16940  0.88980  Biso   1.000  C
  H32      1.0000 0.86860  0.22680  0.88030  Biso   1.000  H
  C86      1.0000 0.85122  0.12670  0.93260  Biso   1.000  C
  C87      1.0000 0.86063  0.04060  0.94730  Biso   1.000  C
  H33      1.0000 0.84600  0.01190  0.97730  Biso   1.000  H
  C88      1.0000 0.89056  0.70660  0.81300  Biso   1.000  C
  C89      1.0000 0.85729  0.72700  0.74980  Biso   1.000  C
  H34      1.0000 0.84040  0.77740  0.74710  Biso   1.000  H
  C90      1.0000 0.84765  0.67460  0.68870  Biso   1.000  C
  C91      1.0000 0.87270  0.60020  0.69270  Biso   1.000  C
  H35      1.0000 0.86620  0.56420  0.65250  Biso   1.000  H
  C92      1.0000 0.90730  0.57910  0.75610  Biso   1.000  C
  C93      1.0000 0.91570  0.63120  0.81650  Biso   1.000  C
  H36      1.0000 0.93840  0.61590  0.85990  Biso   1.000  H
  C94      1.0000 0.94570  0.74440  0.08580  Biso   1.000  C
  C95      1.0000 0.93143  0.17500  0.81530  Biso   1.000  C
  C96      1.0000 0.81515  0.17270  0.96120  Biso   1.000  C
  C97      1.0000 0.81101  0.70030  0.61800  Biso   1.000  C
  C98      1.0000 0.94340  0.50760  0.74880  Biso   1.000  C
  Zn16     1.0000 0.98975  0.20113  0.73894  Biso   1.000  Zn
  O56      1.0000 0.92400  0.80500  0.13570  Biso   1.000  O
  O57      1.0000 0.91450  0.67560  0.09040  Biso   1.000  O
  O58      1.0000 0.93950  0.25540  0.83030  Biso   1.000  O
  O59      1.0000 0.91000  0.43960  0.71950  Biso   1.000  O
  O60      1.0000 0.98410  0.50730  0.79670  Biso   1.000  O
  C99      1.0000 0.91550  0.75390  0.08150  Biso   1.000  C
  C100     1.0000 0.92570  0.48840  0.76820  Biso   1.000  C
  Zn17     1.0000 0.25953  0.17072  0.46433  Biso   1.000  Zn
  Zn18     1.0000 0.41523  0.18504  0.20163  Biso   1.000  Zn
  Zn19     1.0000 0.48647  0.10451  0.17926  Biso   1.000  Zn
  O61      1.0000 0.44470  0.71120  0.63720  Biso   1.000  O
  O62      1.0000 0.46290  0.83200  0.58930  Biso   1.000  O
  O63      1.0000 0.41880  0.25010  0.29620  Biso   1.000  O
  O64      1.0000 0.46094  0.36540  0.29330  Biso   1.000  O
  O65      1.0000 0.30883  0.25160  0.44560  Biso   1.000  O
  O66      1.0000 0.29459  0.36960  0.49780  Biso   1.000  O
  O67      1.0000 0.28896  0.73180  0.11717  Biso   1.000  O
  O68      1.0000 0.30475  0.84970  0.06539  Biso   1.000  O
  O69      1.0000 0.43630  0.03050  0.18850  Biso   1.000  O
  O70      1.0000 0.46350  0.02450  0.31860  Biso   1.000  O
  C101     1.0000 0.39914  0.59540  0.42960  Biso   1.000  C
  C102     1.0000 0.39406  0.64950  0.36940  Biso   1.000  C
  H37      1.0000 0.38670  0.62660  0.32260  Biso   1.000  H
  C103     1.0000 0.39985  0.73650  0.37830  Biso   1.000  C
  C104     1.0000 0.41330  0.76950  0.44980  Biso   1.000  C
  H38      1.0000 0.41800  0.82750  0.45700  Biso   1.000  H
  C105     1.0000 0.41970  0.71650  0.50950  Biso   1.000  C
  C106     1.0000 0.41190  0.62960  0.49900  Biso   1.000  C
  H39      1.0000 0.41520  0.59440  0.53920  Biso   1.000  H
  C107     1.0000 0.39166  0.50200  0.41730  Biso   1.000  C
  C108     1.0000 0.41358  0.45850  0.37370  Biso   1.000  C
  H40      1.0000 0.43370  0.48740  0.35240  Biso   1.000  H
  C109     1.0000 0.40623  0.37190  0.36110  Biso   1.000  C
  C110     1.0000 0.37449  0.33060  0.38980  Biso   1.000  C
  H41      1.0000 0.36860  0.27320  0.38030  Biso   1.000  H
  C111     1.0000 0.35122  0.37330  0.43260  Biso   1.000  C
  C112     1.0000 0.36063  0.45940  0.44730  Biso   1.000  C
  H42      1.0000 0.34600  0.48810  0.47730  Biso   1.000  H
  C113     1.0000 0.39056  0.79340  0.31300  Biso   1.000  C
  C114     1.0000 0.35729  0.77300  0.24980  Biso   1.000  C
  H43      1.0000 0.34040  0.72260  0.24710  Biso   1.000  H
  C115     1.0000 0.34765  0.82540  0.18870  Biso   1.000  C
  C116     1.0000 0.37270  0.89980  0.19270  Biso   1.000  C
  H44      1.0000 0.36620  0.93580  0.15250  Biso   1.000  H
  C117     1.0000 0.40730  0.92090  0.25610  Biso   1.000  C
  C118     1.0000 0.41570  0.86880  0.31650  Biso   1.000  C
  H45      1.0000 0.43840  0.88410  0.35990  Biso   1.000  H
  C119     1.0000 0.44570  0.75560  0.58580  Biso   1.000  C
  C120     1.0000 0.43143  0.32500  0.31530  Biso   1.000  C
  C121     1.0000 0.31515  0.32730  0.46120  Biso   1.000  C
  C122     1.0000 0.31101  0.79970  0.11800  Biso   1.000  C
  C123     1.0000 0.44340  0.99240  0.24880  Biso   1.000  C
  Zn20     1.0000 0.48975  0.29887  0.23894  Biso   1.000  Zn
  O71      1.0000 0.42400  0.69500  0.63570  Biso   1.000  O
  O72      1.0000 0.41450  0.82440  0.59040  Biso   1.000  O
  O73      1.0000 0.43950  0.24460  0.33030  Biso   1.000  O
  O74      1.0000 0.41000  0.06040  0.21950  Biso   1.000  O
  O75      1.0000 0.48410  0.99270  0.29670  Biso   1.000  O
  C124     1.0000 0.41550  0.74610  0.58150  Biso   1.000  C
  C125     1.0000 0.42570  0.01160  0.26820  Biso   1.000  C
  Zn21     1.0000 0.75953  0.67072  0.46433  Biso   1.000  Zn
  Zn22     1.0000 0.91523  0.68504  0.20163  Biso   1.000  Zn
  Zn23     1.0000 0.98647  0.60451  0.17926  Biso   1.000  Zn
  O76      1.0000 0.94470  0.21120  0.63720  Biso   1.000  O
  O77      1.0000 0.96290  0.33200  0.58930  Biso   1.000  O
  O78      1.0000 0.91880  0.75010  0.29620  Biso   1.000  O
  O79      1.0000 0.96094  0.86540  0.29330  Biso   1.000  O
  O80      1.0000 0.80883  0.75160  0.44560  Biso   1.000  O
  O81      1.0000 0.79459  0.86960  0.49780  Biso   1.000  O
  O82      1.0000 0.78896  0.23180  0.11717  Biso   1.000  O
  O83      1.0000 0.80475  0.34970  0.06539  Biso   1.000  O
  O84      1.0000 0.93630  0.53050  0.18850  Biso   1.000  O
  O85      1.0000 0.96350  0.52450  0.31860  Biso   1.000  O
  C126     1.0000 0.89914  0.09540  0.42960  Biso   1.000  C
  C127     1.0000 0.89406  0.14950  0.36940  Biso   1.000  C
  H46      1.0000 0.88670  0.12660  0.32260  Biso   1.000  H
  C128     1.0000 0.89985  0.23650  0.37830  Biso   1.000  C
  C129     1.0000 0.91330  0.26950  0.44980  Biso   1.000  C
  H47      1.0000 0.91800  0.32750  0.45700  Biso   1.000  H
  C130     1.0000 0.91970  0.21650  0.50950  Biso   1.000  C
  C131     1.0000 0.91190  0.12960  0.49900  Biso   1.000  C
  H48      1.0000 0.91520  0.09440  0.53920  Biso   1.000  H
  C132     1.0000 0.89166  0.00200  0.41730  Biso   1.000  C
  C133     1.0000 0.91358  0.95850  0.37370  Biso   1.000  C
  H49      1.0000 0.93370  0.98740  0.35240  Biso   1.000  H
  C134     1.0000 0.90623  0.87190  0.36110  Biso   1.000  C
  C135     1.0000 0.87449  0.83060  0.38980  Biso   1.000  C
  H50      1.0000 0.86860  0.77320  0.38030  Biso   1.000  H
  C136     1.0000 0.85122  0.87330  0.43260  Biso   1.000  C
  C137     1.0000 0.86063  0.95940  0.44730  Biso   1.000  C
  H51      1.0000 0.84600  0.98810  0.47730  Biso   1.000  H
  C138     1.0000 0.89056  0.29340  0.31300  Biso   1.000  C
  C139     1.0000 0.85729  0.27300  0.24980  Biso   1.000  C
  H52      1.0000 0.84040  0.22260  0.24710  Biso   1.000  H
  C140     1.0000 0.84765  0.32540  0.18870  Biso   1.000  C
  C141     1.0000 0.87270  0.39980  0.19270  Biso   1.000  C
  H53      1.0000 0.86620  0.43580  0.15250  Biso   1.000  H
  C142     1.0000 0.90730  0.42090  0.25610  Biso   1.000  C
  C143     1.0000 0.91570  0.36880  0.31650  Biso   1.000  C
  H54      1.0000 0.93840  0.38410  0.35990  Biso   1.000  H
  C144     1.0000 0.94570  0.25560  0.58580  Biso   1.000  C
  C145     1.0000 0.93143  0.82500  0.31530  Biso   1.000  C
  C146     1.0000 0.81515  0.82730  0.46120  Biso   1.000  C
  C147     1.0000 0.81101  0.29970  0.11800  Biso   1.000  C
  C148     1.0000 0.94340  0.49240  0.24880  Biso   1.000  C
  Zn24     1.0000 0.98975  0.79887  0.23894  Biso   1.000  Zn
  O86      1.0000 0.92400  0.19500  0.63570  Biso   1.000  O
  O87      1.0000 0.91450  0.32440  0.59040  Biso   1.000  O
  O88      1.0000 0.93950  0.74460  0.33030  Biso   1.000  O
  O89      1.0000 0.91000  0.56040  0.21950  Biso   1.000  O
  O90      1.0000 0.98410  0.49270  0.29670  Biso   1.000  O
  C149     1.0000 0.91550  0.24610  0.58150  Biso   1.000  C
  C150     1.0000 0.92570  0.51160  0.26820  Biso   1.000  C
  Zn25     1.0000 0.74047  0.17072  0.03567  Biso   1.000  Zn
  Zn26     1.0000 0.58477  0.18504  0.29837  Biso   1.000  Zn
  Zn27     1.0000 0.51353  0.10451  0.32074  Biso   1.000  Zn
  O91      1.0000 0.55530  0.71120  0.86280  Biso   1.000  O
  O92      1.0000 0.53710  0.83200  0.91070  Biso   1.000  O
  O93      1.0000 0.58120  0.25010  0.20380  Biso   1.000  O
  O94      1.0000 0.53906  0.36540  0.20670  Biso   1.000  O
  O95      1.0000 0.69117  0.25160  0.05440  Biso   1.000  O
  O96      1.0000 0.70541  0.36960  0.00220  Biso   1.000  O
  O97      1.0000 0.71104  0.73180  0.38283  Biso   1.000  O
  O98      1.0000 0.69525  0.84970  0.43461  Biso   1.000  O
  O99      1.0000 0.56370  0.03050  0.31150  Biso   1.000  O
  O100     1.0000 0.53650  0.02450  0.18140  Biso   1.000  O
  C151     1.0000 0.60086  0.59540  0.07040  Biso   1.000  C
  C152     1.0000 0.60594  0.64950  0.13060  Biso   1.000  C
  H55      1.0000 0.61330  0.62660  0.17740  Biso   1.000  H
  C153     1.0000 0.60015  0.73650  0.12170  Biso   1.000  C
  C154     1.0000 0.58670  0.76950  0.05020  Biso   1.000  C
  H56      1.0000 0.58200  0.82750  0.04300  Biso   1.000  H
  C155     1.0000 0.58030  0.71650  0.99050  Biso   1.000  C
  C156     1.0000 0.58810  0.62960  0.00100  Biso   1.000  C
  H57      1.0000 0.58480  0.59440  0.96080  Biso   1.000  H
  C157     1.0000 0.60834  0.50200  0.08270  Biso   1.000  C
  C158     1.0000 0.58642  0.45850  0.12630  Biso   1.000  C
  H58      1.0000 0.56630  0.48740  0.14760  Biso   1.000  H
  C159     1.0000 0.59377  0.37190  0.13890  Biso   1.000  C
  C160     1.0000 0.62551  0.33060  0.11020  Biso   1.000  C
  H59      1.0000 0.63140  0.27320  0.11970  Biso   1.000  H
  C161     1.0000 0.64878  0.37330  0.06740  Biso   1.000  C
  C162     1.0000 0.63937  0.45940  0.05270  Biso   1.000  C
  H60      1.0000 0.65400  0.48810  0.02270  Biso   1.000  H
  C163     1.0000 0.60944  0.79340  0.18700  Biso   1.000  C
  C164     1.0000 0.64271  0.77300  0.25020  Biso   1.000  C
  H61      1.0000 0.65960  0.72260  0.25290  Biso   1.000  H
  C165     1.0000 0.65235  0.82540  0.31130  Biso   1.000  C
  C166     1.0000 0.62730  0.89980  0.30730  Biso   1.000  C
  H62      1.0000 0.63380  0.93580  0.34750  Biso   1.000  H
  C167     1.0000 0.59270  0.92090  0.24390  Biso   1.000  C
  C168     1.0000 0.58430  0.86880  0.18350  Biso   1.000  C
  H63      1.0000 0.56160  0.88410  0.14010  Biso   1.000  H
  C169     1.0000 0.55430  0.75560  0.91420  Biso   1.000  C
  C170     1.0000 0.56857  0.32500  0.18470  Biso   1.000  C
  C171     1.0000 0.68485  0.32730  0.03880  Biso   1.000  C
  C172     1.0000 0.68899  0.79970  0.38200  Biso   1.000  C
  C173     1.0000 0.55660  0.99240  0.25120  Biso   1.000  C
  Zn28     1.0000 0.51025  0.29887  0.26106  Biso   1.000  Zn
  O101     1.0000 0.57600  0.69500  0.86430  Biso   1.000  O
  O102     1.0000 0.58550  0.82440  0.90960  Biso   1.000  O
  O103     1.0000 0.56050  0.24460  0.16970  Biso   1.000  O
  O104     1.0000 0.59000  0.06040  0.28050  Biso   1.000  O
  O105     1.0000 0.51590  0.99270  0.20330  Biso   1.000  O
  C174     1.0000 0.58450  0.74610  0.91850  Biso   1.000  C
  C175     1.0000 0.57430  0.01160  0.23180  Biso   1.000  C
  Zn29     1.0000 0.24047  0.67072  0.03567  Biso   1.000  Zn
  Zn30     1.0000 0.08477  0.68504  0.29837  Biso   1.000  Zn
  Zn31     1.0000 0.01353  0.60451  0.32074  Biso   1.000  Zn
  O106     1.0000 0.05530  0.21120  0.86280  Biso   1.000  O
  O107     1.0000 0.03710  0.33200  0.91070  Biso   1.000  O
  O108     1.0000 0.08120  0.75010  0.20380  Biso   1.000  O
  O109     1.0000 0.03906  0.86540  0.20670  Biso   1.000  O
  O110     1.0000 0.19117  0.75160  0.05440  Biso   1.000  O
  O111     1.0000 0.20541  0.86960  0.00220  Biso   1.000  O
  O112     1.0000 0.21104  0.23180  0.38283  Biso   1.000  O
  O113     1.0000 0.19525  0.34970  0.43461  Biso   1.000  O
  O114     1.0000 0.06370  0.53050  0.31150  Biso   1.000  O
  O115     1.0000 0.03650  0.52450  0.18140  Biso   1.000  O
  C176     1.0000 0.10086  0.09540  0.07040  Biso   1.000  C
  C177     1.0000 0.10594  0.14950  0.13060  Biso   1.000  C
  H64      1.0000 0.11330  0.12660  0.17740  Biso   1.000  H
  C178     1.0000 0.10015  0.23650  0.12170  Biso   1.000  C
  C179     1.0000 0.08670  0.26950  0.05020  Biso   1.000  C
  H65      1.0000 0.08200  0.32750  0.04300  Biso   1.000  H
  C180     1.0000 0.08030  0.21650  0.99050  Biso   1.000  C
  C181     1.0000 0.08810  0.12960  0.00100  Biso   1.000  C
  H66      1.0000 0.08480  0.09440  0.96080  Biso   1.000  H
  C182     1.0000 0.10834  0.00200  0.08270  Biso   1.000  C
  C183     1.0000 0.08642  0.95850  0.12630  Biso   1.000  C
  H67      1.0000 0.06630  0.98740  0.14760  Biso   1.000  H
  C184     1.0000 0.09377  0.87190  0.13890  Biso   1.000  C
  C185     1.0000 0.12551  0.83060  0.11020  Biso   1.000  C
  H68      1.0000 0.13140  0.77320  0.11970  Biso   1.000  H
  C186     1.0000 0.14878  0.87330  0.06740  Biso   1.000  C
  C187     1.0000 0.13937  0.95940  0.05270  Biso   1.000  C
  H69      1.0000 0.15400  0.98810  0.02270  Biso   1.000  H
  C188     1.0000 0.10944  0.29340  0.18700  Biso   1.000  C
  C189     1.0000 0.14271  0.27300  0.25020  Biso   1.000  C
  H70      1.0000 0.15960  0.22260  0.25290  Biso   1.000  H
  C190     1.0000 0.15235  0.32540  0.31130  Biso   1.000  C
  C191     1.0000 0.12730  0.39980  0.30730  Biso   1.000  C
  H71      1.0000 0.13380  0.43580  0.34750  Biso   1.000  H
  C192     1.0000 0.09270  0.42090  0.24390  Biso   1.000  C
  C193     1.0000 0.08430  0.36880  0.18350  Biso   1.000  C
  H72      1.0000 0.06160  0.38410  0.14010  Biso   1.000  H
  C194     1.0000 0.05430  0.25560  0.91420  Biso   1.000  C
  C195     1.0000 0.06857  0.82500  0.18470  Biso   1.000  C
  C196     1.0000 0.18485  0.82730  0.03880  Biso   1.000  C
  C197     1.0000 0.18899  0.29970  0.38200  Biso   1.000  C
  C198     1.0000 0.05660  0.49240  0.25120  Biso   1.000  C
  Zn32     1.0000 0.01025  0.79887  0.26106  Biso   1.000  Zn
  O116     1.0000 0.07600  0.19500  0.86430  Biso   1.000  O
  O117     1.0000 0.08550  0.32440  0.90960  Biso   1.000  O
  O118     1.0000 0.06050  0.74460  0.16970  Biso   1.000  O
  O119     1.0000 0.09000  0.56040  0.28050  Biso   1.000  O
  O120     1.0000 0.01590  0.49270  0.20330  Biso   1.000  O
  C199     1.0000 0.08450  0.24610  0.91850  Biso   1.000  C
  C200     1.0000 0.07430  0.51160  0.23180  Biso   1.000  C
  O121     1.0000 0.50000  0.82000  0.75000  Biso   1.000  O
  O122     1.0000 0.00000  0.32000  0.75000  Biso   1.000  O
  O123     1.0000 0.50000  0.18000  0.25000  Biso   1.000  O
  O124     1.0000 0.00000  0.68000  0.25000  Biso   1.000  O
