data_image0
_cell_length_a       12.999
_cell_length_b       6.7152
_cell_length_c       16.547
_cell_angle_alpha    90
_cell_angle_beta     95.999
_cell_angle_gamma    90

_symmetry_space_group_name_H-M    "P 1"
_symmetry_int_tables_number       1

loop_
  _symmetry_equiv_pos_as_xyz
  'x, y, z'

loop_
  _atom_site_label
  _atom_site_occupancy
  _atom_site_fract_x
  _atom_site_fract_y
  _atom_site_fract_z
  _atom_site_thermal_displace_type
  _atom_site_B_iso_or_equiv
  _atom_site_type_symbol
  N1       1.0000 0.92840  0.39690  0.82540  Biso   1.000  N
  N2       1.0000 0.89590  0.63180  0.91300  Biso   1.000  N
  O1       1.0000 0.86160  0.18400  0.66120  Biso   1.000  O
  C1       1.0000 0.75940  0.89650  0.64100  Biso   1.000  C
  O2       1.0000 0.88690  0.96670  0.74880  Biso   1.000  O
  C2       1.0000 0.74670  0.70040  0.66100  Biso   1.000  C
  H1       1.0000 0.78730  0.64700  0.70540  Biso   1.000  H
  C3       1.0000 0.00090  0.90750  0.97490  Biso   1.000  C
  H2       1.0000 0.02420  0.94080  0.92270  Biso   1.000  H
  H3       1.0000 0.05020  0.81440  0.00190  Biso   1.000  H
  C4       1.0000 0.69730  0.97080  0.57560  Biso   1.000  C
  H4       1.0000 0.70530  0.10310  0.56070  Biso   1.000  H
  C5       1.0000 0.61160  0.65670  0.55290  Biso   1.000  C
  C6       1.0000 0.84130  0.02620  0.68770  Biso   1.000  C
  C7       1.0000 0.96000  0.56520  0.85970  Biso   1.000  C
  H5       1.0000 0.01980  0.63130  0.84870  Biso   1.000  H
  C8       1.0000 0.67630  0.58230  0.61760  Biso   1.000  C
  H6       1.0000 0.67160  0.44880  0.63170  Biso   1.000  H
  C9       1.0000 0.62340  0.85570  0.53120  Biso   1.000  C
  H7       1.0000 0.58210  0.91010  0.48740  Biso   1.000  H
  C10      1.0000 0.81850  0.50390  0.91150  Biso   1.000  C
  H8       1.0000 0.76190  0.51060  0.94150  Biso   1.000  H
  C11      1.0000 0.89950  0.81200  0.96170  Biso   1.000  C
  H9       1.0000 0.87680  0.78000  0.01420  Biso   1.000  H
  H10      1.0000 0.85070  0.90690  0.93540  Biso   1.000  H
  C12      1.0000 0.83800  0.36350  0.85840  Biso   1.000  C
  H11      1.0000 0.79490  0.25510  0.84530  Biso   1.000  H
  C13      1.0000 0.52010  0.59700  0.48990  Biso   1.000  C
  C14      1.0000 0.53680  0.48300  0.52530  Biso   1.000  C
  N3       1.0000 0.07160  0.39690  0.67460  Biso   1.000  N
  N4       1.0000 0.10410  0.63180  0.58700  Biso   1.000  N
  O3       1.0000 0.13840  0.18400  0.83880  Biso   1.000  O
  C15      1.0000 0.24060  0.89650  0.85900  Biso   1.000  C
  O4       1.0000 0.11310  0.96670  0.75120  Biso   1.000  O
  C16      1.0000 0.25330  0.70040  0.83900  Biso   1.000  C
  H12      1.0000 0.21270  0.64700  0.79460  Biso   1.000  H
  C17      1.0000 0.99910  0.90750  0.52510  Biso   1.000  C
  H13      1.0000 0.97580  0.94080  0.57730  Biso   1.000  H
  H14      1.0000 0.94980  0.81440  0.49810  Biso   1.000  H
  C18      1.0000 0.30270  0.97080  0.92440  Biso   1.000  C
  H15      1.0000 0.29470  0.10310  0.93930  Biso   1.000  H
  C19      1.0000 0.38840  0.65670  0.94710  Biso   1.000  C
  C20      1.0000 0.15870  0.02620  0.81230  Biso   1.000  C
  C21      1.0000 0.04000  0.56520  0.64030  Biso   1.000  C
  H16      1.0000 0.98020  0.63130  0.65130  Biso   1.000  H
  C22      1.0000 0.32370  0.58230  0.88240  Biso   1.000  C
  H17      1.0000 0.32840  0.44880  0.86830  Biso   1.000  H
  C23      1.0000 0.37660  0.85570  0.96880  Biso   1.000  C
  H18      1.0000 0.41790  0.91010  0.01260  Biso   1.000  H
  C24      1.0000 0.18150  0.50390  0.58850  Biso   1.000  C
  H19      1.0000 0.23810  0.51060  0.55850  Biso   1.000  H
  C25      1.0000 0.10050  0.81200  0.53830  Biso   1.000  C
  H20      1.0000 0.12320  0.78000  0.48580  Biso   1.000  H
  H21      1.0000 0.14930  0.90690  0.56460  Biso   1.000  H
  C26      1.0000 0.16200  0.36350  0.64160  Biso   1.000  C
  H22      1.0000 0.20510  0.25510  0.65470  Biso   1.000  H
  C27      1.0000 0.47990  0.59700  0.01010  Biso   1.000  C
  C28      1.0000 0.46320  0.48300  0.97470  Biso   1.000  C
  N5       1.0000 0.07160  0.60310  0.17460  Biso   1.000  N
  N6       1.0000 0.10410  0.36820  0.08700  Biso   1.000  N
  O5       1.0000 0.13840  0.81600  0.33880  Biso   1.000  O
  C29      1.0000 0.24060  0.10350  0.35900  Biso   1.000  C
  O6       1.0000 0.11310  0.03330  0.25120  Biso   1.000  O
  C30      1.0000 0.25330  0.29960  0.33900  Biso   1.000  C
  H23      1.0000 0.21270  0.35300  0.29460  Biso   1.000  H
  C31      1.0000 0.99910  0.09250  0.02510  Biso   1.000  C
  H24      1.0000 0.97580  0.05920  0.07730  Biso   1.000  H
  H25      1.0000 0.94980  0.18560  0.99810  Biso   1.000  H
  C32      1.0000 0.30270  0.02920  0.42440  Biso   1.000  C
  H26      1.0000 0.29470  0.89690  0.43930  Biso   1.000  H
  C33      1.0000 0.38840  0.34330  0.44710  Biso   1.000  C
  C34      1.0000 0.15870  0.97380  0.31230  Biso   1.000  C
  C35      1.0000 0.04000  0.43480  0.14030  Biso   1.000  C
  H27      1.0000 0.98020  0.36870  0.15130  Biso   1.000  H
  C36      1.0000 0.32370  0.41770  0.38240  Biso   1.000  C
  H28      1.0000 0.32840  0.55120  0.36830  Biso   1.000  H
  C37      1.0000 0.37660  0.14430  0.46880  Biso   1.000  C
  H29      1.0000 0.41790  0.08990  0.51260  Biso   1.000  H
  C38      1.0000 0.18150  0.49610  0.08850  Biso   1.000  C
  H30      1.0000 0.23810  0.48940  0.05850  Biso   1.000  H
  C39      1.0000 0.10050  0.18800  0.03830  Biso   1.000  C
  H31      1.0000 0.12320  0.22000  0.98580  Biso   1.000  H
  H32      1.0000 0.14930  0.09310  0.06460  Biso   1.000  H
  C40      1.0000 0.16200  0.63650  0.14160  Biso   1.000  C
  H33      1.0000 0.20510  0.74490  0.15470  Biso   1.000  H
  C41      1.0000 0.47990  0.40300  0.51010  Biso   1.000  C
  C42      1.0000 0.46320  0.51700  0.47470  Biso   1.000  C
  N7       1.0000 0.92840  0.60310  0.32540  Biso   1.000  N
  N8       1.0000 0.89590  0.36820  0.41300  Biso   1.000  N
  O7       1.0000 0.86160  0.81600  0.16120  Biso   1.000  O
  C43      1.0000 0.75940  0.10350  0.14100  Biso   1.000  C
  O8       1.0000 0.88690  0.03330  0.24880  Biso   1.000  O
  C44      1.0000 0.74670  0.29960  0.16100  Biso   1.000  C
  H34      1.0000 0.78730  0.35300  0.20540  Biso   1.000  H
  C45      1.0000 0.00090  0.09250  0.47490  Biso   1.000  C
  H35      1.0000 0.02420  0.05920  0.42270  Biso   1.000  H
  H36      1.0000 0.05020  0.18560  0.50190  Biso   1.000  H
  C46      1.0000 0.69730  0.02920  0.07560  Biso   1.000  C
  H37      1.0000 0.70530  0.89690  0.06070  Biso   1.000  H
  C47      1.0000 0.61160  0.34330  0.05290  Biso   1.000  C
  C48      1.0000 0.84130  0.97380  0.18770  Biso   1.000  C
  C49      1.0000 0.96000  0.43480  0.35970  Biso   1.000  C
  H38      1.0000 0.01980  0.36870  0.34870  Biso   1.000  H
  C50      1.0000 0.67630  0.41770  0.11760  Biso   1.000  C
  H39      1.0000 0.67160  0.55120  0.13170  Biso   1.000  H
  C51      1.0000 0.62340  0.14430  0.03120  Biso   1.000  C
  H40      1.0000 0.58210  0.08990  0.98740  Biso   1.000  H
  C52      1.0000 0.81850  0.49610  0.41150  Biso   1.000  C
  H41      1.0000 0.76190  0.48940  0.44150  Biso   1.000  H
  C53      1.0000 0.89950  0.18800  0.46170  Biso   1.000  C
  H42      1.0000 0.87680  0.22000  0.51420  Biso   1.000  H
  H43      1.0000 0.85070  0.09310  0.43540  Biso   1.000  H
  C54      1.0000 0.83800  0.63650  0.35840  Biso   1.000  C
  H44      1.0000 0.79490  0.74490  0.34530  Biso   1.000  H
  C55      1.0000 0.52010  0.40300  0.98990  Biso   1.000  C
  C56      1.0000 0.53680  0.51700  0.02530  Biso   1.000  C
  Co1      1.0000 0.00000  0.21765  0.75000  Biso   1.000  Co
  Co2      1.0000 0.00000  0.78235  0.25000  Biso   1.000  Co
