data_image0
_cell_length_a       9.6103
_cell_length_b       9.6103
_cell_length_c       6.9723
_cell_angle_alpha    90
_cell_angle_beta     90
_cell_angle_gamma    120

_symmetry_space_group_name_H-M    "P 1"
_symmetry_int_tables_number       1

loop_
  _symmetry_equiv_pos_as_xyz
  'x, y, z'

loop_
  _atom_site_label
  _atom_site_occupancy
  _atom_site_fract_x
  _atom_site_fract_y
  _atom_site_fract_z
  _atom_site_thermal_displace_type
  _atom_site_B_iso_or_equiv
  _atom_site_type_symbol
  Ni1      1.0000 0.00000  0.00000  0.00000  Biso   1.000  Ni
  N1       1.0000 0.00000  0.00000  0.30050  Biso   1.000  N
  N2       1.0000 0.00000  0.00000  0.69950  Biso   1.000  N
  O1       1.0000 0.76290  0.00000  0.00000  Biso   1.000  O
  O2       1.0000 0.00000  0.76290  0.00000  Biso   1.000  O
  O3       1.0000 0.23710  0.23710  0.00000  Biso   1.000  O
  O4       1.0000 0.23710  0.00000  0.00000  Biso   1.000  O
  O5       1.0000 0.00000  0.23710  0.00000  Biso   1.000  O
  O6       1.0000 0.76290  0.76290  0.00000  Biso   1.000  O
  C1       1.0000 0.74670  0.25330  0.00000  Biso   1.000  C
  C2       1.0000 0.82960  0.17040  0.00000  Biso   1.000  C
  O7       1.0000 0.88190  0.11810  0.00000  Biso   1.000  O
  C3       1.0000 0.74670  0.49340  0.00000  Biso   1.000  C
  C4       1.0000 0.82960  0.65920  0.00000  Biso   1.000  C
  O8       1.0000 0.88190  0.76380  0.00000  Biso   1.000  O
  C5       1.0000 0.50660  0.25330  0.00000  Biso   1.000  C
  C6       1.0000 0.34080  0.17040  0.00000  Biso   1.000  C
  O9       1.0000 0.23620  0.11810  0.00000  Biso   1.000  O
  C7       1.0000 0.25330  0.74670  0.00000  Biso   1.000  C
  C8       1.0000 0.17040  0.82960  0.00000  Biso   1.000  C
  O10      1.0000 0.11810  0.88190  0.00000  Biso   1.000  O
  C9       1.0000 0.25330  0.50660  0.00000  Biso   1.000  C
  C10      1.0000 0.17040  0.34080  0.00000  Biso   1.000  C
  O11      1.0000 0.11810  0.23620  0.00000  Biso   1.000  O
  C11      1.0000 0.49340  0.74670  0.00000  Biso   1.000  C
  C12      1.0000 0.65920  0.82960  0.00000  Biso   1.000  C
  O12      1.0000 0.76380  0.88190  0.00000  Biso   1.000  O
  C13      1.0000 0.58240  0.16480  0.00000  Biso   1.000  C
  H1       1.0000 0.52535  0.05070  0.00000  Biso   1.000  H
  C14      1.0000 0.83520  0.41760  0.00000  Biso   1.000  C
  H2       1.0000 0.94930  0.47465  0.00000  Biso   1.000  H
  C15      1.0000 0.58240  0.41760  0.00000  Biso   1.000  C
  H3       1.0000 0.52535  0.47465  0.00000  Biso   1.000  H
  C16      1.0000 0.41760  0.83520  0.00000  Biso   1.000  C
  H4       1.0000 0.47465  0.94930  0.00000  Biso   1.000  H
  C17      1.0000 0.16480  0.58240  0.00000  Biso   1.000  C
  H5       1.0000 0.05070  0.52535  0.00000  Biso   1.000  H
  C18      1.0000 0.41760  0.58240  0.00000  Biso   1.000  C
  H6       1.0000 0.47465  0.52535  0.00000  Biso   1.000  H
  C19      1.0000 0.06950  0.13900  0.40100  Biso   1.000  C
  C20      1.0000 0.86100  0.93050  0.40100  Biso   1.000  C
  C21      1.0000 0.06950  0.93050  0.40100  Biso   1.000  C
  C22      1.0000 0.93050  0.86100  0.40100  Biso   1.000  C
  C23      1.0000 0.13900  0.06950  0.40100  Biso   1.000  C
  C24      1.0000 0.93050  0.06950  0.40100  Biso   1.000  C
  C25      1.0000 0.13900  0.06950  0.59900  Biso   1.000  C
  C26      1.0000 0.93050  0.86100  0.59900  Biso   1.000  C
  C27      1.0000 0.93050  0.06950  0.59900  Biso   1.000  C
  C28      1.0000 0.86100  0.93050  0.59900  Biso   1.000  C
  C29      1.0000 0.06950  0.13900  0.59900  Biso   1.000  C
  C30      1.0000 0.06950  0.93050  0.59900  Biso   1.000  C
  C31      1.0000 0.65730  0.18520  0.00000  Biso   1.000  C
  C32      1.0000 0.71970  0.07020  0.00000  Biso   1.000  C
  C33      1.0000 0.81480  0.47210  0.00000  Biso   1.000  C
  C34      1.0000 0.92980  0.64950  0.00000  Biso   1.000  C
  C35      1.0000 0.52790  0.34270  0.00000  Biso   1.000  C
  C36      1.0000 0.35050  0.28030  0.00000  Biso   1.000  C
  C37      1.0000 0.34270  0.81480  0.00000  Biso   1.000  C
  C38      1.0000 0.28030  0.92980  0.00000  Biso   1.000  C
  C39      1.0000 0.18520  0.52790  0.00000  Biso   1.000  C
  C40      1.0000 0.07020  0.35050  0.00000  Biso   1.000  C
  C41      1.0000 0.47210  0.65730  0.00000  Biso   1.000  C
  C42      1.0000 0.64950  0.71970  0.00000  Biso   1.000  C
  C43      1.0000 0.18520  0.65730  0.00000  Biso   1.000  C
  C44      1.0000 0.07020  0.71970  0.00000  Biso   1.000  C
  C45      1.0000 0.47210  0.81480  0.00000  Biso   1.000  C
  C46      1.0000 0.64950  0.92980  0.00000  Biso   1.000  C
  C47      1.0000 0.34270  0.52790  0.00000  Biso   1.000  C
  C48      1.0000 0.28030  0.35050  0.00000  Biso   1.000  C
  C49      1.0000 0.81480  0.34270  0.00000  Biso   1.000  C
  C50      1.0000 0.92980  0.28030  0.00000  Biso   1.000  C
  C51      1.0000 0.52790  0.18520  0.00000  Biso   1.000  C
  C52      1.0000 0.35050  0.07020  0.00000  Biso   1.000  C
  C53      1.0000 0.65730  0.47210  0.00000  Biso   1.000  C
  C54      1.0000 0.71970  0.64950  0.00000  Biso   1.000  C
  C55      1.0000 0.11800  0.11800  0.40100  Biso   1.000  C
  C56      1.0000 0.88200  0.00000  0.40100  Biso   1.000  C
  C57      1.0000 0.00000  0.88200  0.40100  Biso   1.000  C
  C58      1.0000 0.88200  0.88200  0.40100  Biso   1.000  C
  C59      1.0000 0.11800  0.00000  0.40100  Biso   1.000  C
  C60      1.0000 0.00000  0.11800  0.40100  Biso   1.000  C
  C61      1.0000 0.11800  0.11800  0.59900  Biso   1.000  C
  C62      1.0000 0.00000  0.88200  0.59900  Biso   1.000  C
  C63      1.0000 0.88200  0.00000  0.59900  Biso   1.000  C
  C64      1.0000 0.88200  0.88200  0.59900  Biso   1.000  C
  C65      1.0000 0.00000  0.11800  0.59900  Biso   1.000  C
  C66      1.0000 0.11800  0.00000  0.59900  Biso   1.000  C
