data_image0
_cell_length_a       12.6528
_cell_length_b       5.1909
_cell_length_c       21.1457
_cell_angle_alpha    90
_cell_angle_beta     95.088
_cell_angle_gamma    90

_symmetry_space_group_name_H-M    "P 1"
_symmetry_int_tables_number       1

loop_
  _symmetry_equiv_pos_as_xyz
  'x, y, z'

loop_
  _atom_site_label
  _atom_site_occupancy
  _atom_site_fract_x
  _atom_site_fract_y
  _atom_site_fract_z
  _atom_site_thermal_displace_type
  _atom_site_B_iso_or_equiv
  _atom_site_type_symbol
  Zn1      1.0000 0.00597  0.21510  0.07054  Biso   1.000  Zn
  Zn2      1.0000 0.99888  0.73311  0.17272  Biso   1.000  Zn
  Zn3      1.0000 0.39935  0.77804  0.05465  Biso   1.000  Zn
  P1       1.0000 0.13998  0.73232  0.05251  Biso   1.000  P
  P2       1.0000 0.87328  0.24183  0.18659  Biso   1.000  P
  P3       1.0000 0.47221  0.70089  0.91682  Biso   1.000  P
  O1       1.0000 0.11566  0.44570  0.04952  Biso   1.000  O
  O2       1.0000 0.11773  0.85730  0.98692  Biso   1.000  O
  O3       1.0000 0.96283  0.37470  0.15073  Biso   1.000  O
  O4       1.0000 0.06544  0.87020  0.09755  Biso   1.000  O
  O5       1.0000 0.89830  0.29630  0.25764  Biso   1.000  O
  O6       1.0000 0.87660  0.95550  0.17088  Biso   1.000  O
  O7       1.0000 0.39430  0.67090  0.96735  Biso   1.000  O
  O8       1.0000 0.56889  0.86120  0.93865  Biso   1.000  O
  O9       1.0000 0.50500  0.43930  0.89308  Biso   1.000  O
  O10      1.0000 0.25407  0.78020  0.07987  Biso   1.000  O
  O11      1.0000 0.76807  0.36220  0.16567  Biso   1.000  O
  H1       1.0000 0.72270  0.24950  0.16070  Biso   1.000  H
  O12      1.0000 0.41077  0.85010  0.85977  Biso   1.000  O
  H2       1.0000 0.35260  0.78310  0.85110  Biso   1.000  H
  Zn4      1.0000 0.99403  0.71510  0.42946  Biso   1.000  Zn
  Zn5      1.0000 0.00112  0.23311  0.32728  Biso   1.000  Zn
  Zn6      1.0000 0.60065  0.27804  0.44535  Biso   1.000  Zn
  P4       1.0000 0.86002  0.23232  0.44749  Biso   1.000  P
  P5       1.0000 0.12672  0.74183  0.31341  Biso   1.000  P
  P6       1.0000 0.52779  0.20089  0.58318  Biso   1.000  P
  O13      1.0000 0.88434  0.94570  0.45048  Biso   1.000  O
  O14      1.0000 0.88227  0.35730  0.51308  Biso   1.000  O
  O15      1.0000 0.03717  0.87470  0.34927  Biso   1.000  O
  O16      1.0000 0.93456  0.37020  0.40245  Biso   1.000  O
  O17      1.0000 0.10170  0.79630  0.24236  Biso   1.000  O
  O18      1.0000 0.12340  0.45550  0.32912  Biso   1.000  O
  O19      1.0000 0.60570  0.17090  0.53265  Biso   1.000  O
  O20      1.0000 0.43111  0.36120  0.56135  Biso   1.000  O
  O21      1.0000 0.49500  0.93930  0.60692  Biso   1.000  O
  O22      1.0000 0.74593  0.28020  0.42013  Biso   1.000  O
  O23      1.0000 0.23193  0.86220  0.33433  Biso   1.000  O
  H3       1.0000 0.27730  0.74950  0.33930  Biso   1.000  H
  O24      1.0000 0.58923  0.35010  0.64023  Biso   1.000  O
  H4       1.0000 0.64740  0.28310  0.64890  Biso   1.000  H
  Zn7      1.0000 0.99403  0.78490  0.92946  Biso   1.000  Zn
  Zn8      1.0000 0.00112  0.26689  0.82728  Biso   1.000  Zn
  Zn9      1.0000 0.60065  0.22196  0.94535  Biso   1.000  Zn
  P7       1.0000 0.86002  0.26768  0.94749  Biso   1.000  P
  P8       1.0000 0.12672  0.75817  0.81341  Biso   1.000  P
  P9       1.0000 0.52779  0.29911  0.08318  Biso   1.000  P
  O25      1.0000 0.88434  0.55430  0.95048  Biso   1.000  O
  O26      1.0000 0.88227  0.14270  0.01308  Biso   1.000  O
  O27      1.0000 0.03717  0.62530  0.84927  Biso   1.000  O
  O28      1.0000 0.93456  0.12980  0.90245  Biso   1.000  O
  O29      1.0000 0.10170  0.70370  0.74236  Biso   1.000  O
  O30      1.0000 0.12340  0.04450  0.82912  Biso   1.000  O
  O31      1.0000 0.60570  0.32910  0.03265  Biso   1.000  O
  O32      1.0000 0.43111  0.13880  0.06135  Biso   1.000  O
  O33      1.0000 0.49500  0.56070  0.10692  Biso   1.000  O
  O34      1.0000 0.74593  0.21980  0.92013  Biso   1.000  O
  O35      1.0000 0.23193  0.63780  0.83433  Biso   1.000  O
  H5       1.0000 0.27730  0.75050  0.83930  Biso   1.000  H
  O36      1.0000 0.58923  0.14990  0.14023  Biso   1.000  O
  H6       1.0000 0.64740  0.21690  0.14890  Biso   1.000  H
  Zn10     1.0000 0.00597  0.28490  0.57054  Biso   1.000  Zn
  Zn11     1.0000 0.99888  0.76689  0.67272  Biso   1.000  Zn
  Zn12     1.0000 0.39935  0.72196  0.55465  Biso   1.000  Zn
  P10      1.0000 0.13998  0.76768  0.55251  Biso   1.000  P
  P11      1.0000 0.87328  0.25817  0.68659  Biso   1.000  P
  P12      1.0000 0.47221  0.79911  0.41682  Biso   1.000  P
  O37      1.0000 0.11566  0.05430  0.54952  Biso   1.000  O
  O38      1.0000 0.11773  0.64270  0.48692  Biso   1.000  O
  O39      1.0000 0.96283  0.12530  0.65073  Biso   1.000  O
  O40      1.0000 0.06544  0.62980  0.59755  Biso   1.000  O
  O41      1.0000 0.89830  0.20370  0.75764  Biso   1.000  O
  O42      1.0000 0.87660  0.54450  0.67088  Biso   1.000  O
  O43      1.0000 0.39430  0.82910  0.46735  Biso   1.000  O
  O44      1.0000 0.56889  0.63880  0.43865  Biso   1.000  O
  O45      1.0000 0.50500  0.06070  0.39308  Biso   1.000  O
  O46      1.0000 0.25407  0.71980  0.57987  Biso   1.000  O
  O47      1.0000 0.76807  0.13780  0.66567  Biso   1.000  O
  H7       1.0000 0.72270  0.25050  0.66070  Biso   1.000  H
  O48      1.0000 0.41077  0.64990  0.35977  Biso   1.000  O
  H8       1.0000 0.35260  0.71690  0.35110  Biso   1.000  H
