data_image0
_cell_length_a       26.45
_cell_length_b       26.45
_cell_length_c       27.88
_cell_angle_alpha    90
_cell_angle_beta     90
_cell_angle_gamma    90

_symmetry_space_group_name_H-M    "P 1"
_symmetry_int_tables_number       1

loop_
  _symmetry_equiv_pos_as_xyz
  'x, y, z'

loop_
  _atom_site_label
  _atom_site_occupancy
  _atom_site_fract_x
  _atom_site_fract_y
  _atom_site_fract_z
  _atom_site_thermal_displace_type
  _atom_site_B_iso_or_equiv
  _atom_site_type_symbol
  O1       1.0000 0.43497  0.98563  0.45033  Biso   1.000  O
  O2       1.0000 0.47194  0.06239  0.45085  Biso   1.000  O
  O3       1.0000 0.07114  0.02089  0.34907  Biso   1.000  O
  O4       1.0000 0.07018  0.02304  0.26909  Biso   1.000  O
  N1       1.0000 0.29298  0.10452  0.30367  Biso   1.000  N
  C1       1.0000 0.43913  0.03090  0.43764  Biso   1.000  C
  C2       1.0000 0.40195  0.05006  0.39972  Biso   1.000  C
  C3       1.0000 0.36769  0.01773  0.37873  Biso   1.000  C
  H1       1.0000 0.36860  0.98350  0.38620  Biso   1.000  H
  C4       1.0000 0.33290  0.03486  0.34755  Biso   1.000  C
  H2       1.0000 0.31010  0.01230  0.33390  Biso   1.000  H
  C5       1.0000 0.33061  0.08545  0.33548  Biso   1.000  C
  C6       1.0000 0.36587  0.11957  0.35551  Biso   1.000  C
  H3       1.0000 0.36560  0.15370  0.34740  Biso   1.000  H
  C7       1.0000 0.40109  0.10030  0.38775  Biso   1.000  C
  H4       1.0000 0.42460  0.12210  0.40150  Biso   1.000  H
  C8       1.0000 0.24304  0.08352  0.30571  Biso   1.000  C
  C9       1.0000 0.21991  0.07291  0.34870  Biso   1.000  C
  H5       1.0000 0.23740  0.07810  0.37720  Biso   1.000  H
  C10      1.0000 0.17094  0.05459  0.35002  Biso   1.000  C
  H6       1.0000 0.15570  0.04770  0.37940  Biso   1.000  H
  C11      1.0000 0.14467  0.04651  0.30816  Biso   1.000  C
  C12      1.0000 0.09163  0.02878  0.30879  Biso   1.000  C
  C13      1.0000 0.16826  0.05673  0.26563  Biso   1.000  C
  H7       1.0000 0.15070  0.05130  0.23720  Biso   1.000  H
  C14      1.0000 0.21739  0.07490  0.26316  Biso   1.000  C
  H8       1.0000 0.23270  0.08110  0.23370  Biso   1.000  H
  C15      1.0000 0.30019  0.14951  0.27594  Biso   1.000  C
  C16      1.0000 0.26338  0.18630  0.27580  Biso   1.000  C
  H9       1.0000 0.23380  0.18170  0.29330  Biso   1.000  H
  C17      1.0000 0.01880  0.03980  0.16050  Biso   1.000  C
  H10      1.0000 0.03190  0.06710  0.17740  Biso   1.000  H
  C18      1.0000 0.01940  0.04150  0.11700  Biso   1.000  C
  H11      1.0000 0.03220  0.06920  0.10050  Biso   1.000  H
  N2       1.0000 0.00800  0.03700  0.01890  Biso   1.000  N
  O5       1.0000 0.56503  0.01437  0.45033  Biso   1.000  O
  O6       1.0000 0.52806  0.93761  0.45085  Biso   1.000  O
  O7       1.0000 0.92886  0.97911  0.34907  Biso   1.000  O
  O8       1.0000 0.92982  0.97696  0.26909  Biso   1.000  O
  N3       1.0000 0.70702  0.89548  0.30367  Biso   1.000  N
  C19      1.0000 0.56087  0.96910  0.43764  Biso   1.000  C
  C20      1.0000 0.59805  0.94994  0.39972  Biso   1.000  C
  C21      1.0000 0.63231  0.98227  0.37873  Biso   1.000  C
  H12      1.0000 0.63140  0.01650  0.38620  Biso   1.000  H
  C22      1.0000 0.66710  0.96514  0.34755  Biso   1.000  C
  H13      1.0000 0.68990  0.98770  0.33390  Biso   1.000  H
  C23      1.0000 0.66939  0.91455  0.33548  Biso   1.000  C
  C24      1.0000 0.63413  0.88043  0.35551  Biso   1.000  C
  H14      1.0000 0.63440  0.84630  0.34740  Biso   1.000  H
  C25      1.0000 0.59891  0.89970  0.38775  Biso   1.000  C
  H15      1.0000 0.57540  0.87790  0.40150  Biso   1.000  H
  C26      1.0000 0.75696  0.91648  0.30571  Biso   1.000  C
  C27      1.0000 0.78009  0.92709  0.34870  Biso   1.000  C
  H16      1.0000 0.76260  0.92190  0.37720  Biso   1.000  H
  C28      1.0000 0.82906  0.94541  0.35002  Biso   1.000  C
  H17      1.0000 0.84430  0.95230  0.37940  Biso   1.000  H
  C29      1.0000 0.85533  0.95349  0.30816  Biso   1.000  C
  C30      1.0000 0.90837  0.97122  0.30879  Biso   1.000  C
  C31      1.0000 0.83174  0.94327  0.26563  Biso   1.000  C
  H18      1.0000 0.84930  0.94870  0.23720  Biso   1.000  H
  C32      1.0000 0.78261  0.92510  0.26316  Biso   1.000  C
  H19      1.0000 0.76730  0.91890  0.23370  Biso   1.000  H
  C33      1.0000 0.69981  0.85049  0.27594  Biso   1.000  C
  C34      1.0000 0.73662  0.81370  0.27580  Biso   1.000  C
  H20      1.0000 0.76620  0.81830  0.29330  Biso   1.000  H
  C35      1.0000 0.98120  0.96020  0.16050  Biso   1.000  C
  H21      1.0000 0.96810  0.93290  0.17740  Biso   1.000  H
  C36      1.0000 0.98060  0.95850  0.11700  Biso   1.000  C
  H22      1.0000 0.96780  0.93080  0.10050  Biso   1.000  H
  N4       1.0000 0.99200  0.96300  0.01890  Biso   1.000  N
  O9       1.0000 0.01437  0.43497  0.45033  Biso   1.000  O
  O10      1.0000 0.93761  0.47194  0.45085  Biso   1.000  O
  O11      1.0000 0.97911  0.07114  0.34907  Biso   1.000  O
  O12      1.0000 0.97696  0.07018  0.26909  Biso   1.000  O
  N5       1.0000 0.89548  0.29298  0.30367  Biso   1.000  N
  C37      1.0000 0.96910  0.43913  0.43764  Biso   1.000  C
  C38      1.0000 0.94994  0.40195  0.39972  Biso   1.000  C
  C39      1.0000 0.98227  0.36769  0.37873  Biso   1.000  C
  H23      1.0000 0.01650  0.36860  0.38620  Biso   1.000  H
  C40      1.0000 0.96514  0.33290  0.34755  Biso   1.000  C
  H24      1.0000 0.98770  0.31010  0.33390  Biso   1.000  H
  C41      1.0000 0.91455  0.33061  0.33548  Biso   1.000  C
  C42      1.0000 0.88043  0.36587  0.35551  Biso   1.000  C
  H25      1.0000 0.84630  0.36560  0.34740  Biso   1.000  H
  C43      1.0000 0.89970  0.40109  0.38775  Biso   1.000  C
  H26      1.0000 0.87790  0.42460  0.40150  Biso   1.000  H
  C44      1.0000 0.91648  0.24304  0.30571  Biso   1.000  C
  C45      1.0000 0.92709  0.21991  0.34870  Biso   1.000  C
  H27      1.0000 0.92190  0.23740  0.37720  Biso   1.000  H
  C46      1.0000 0.94541  0.17094  0.35002  Biso   1.000  C
  H28      1.0000 0.95230  0.15570  0.37940  Biso   1.000  H
  C47      1.0000 0.95349  0.14467  0.30816  Biso   1.000  C
  C48      1.0000 0.97122  0.09163  0.30879  Biso   1.000  C
  C49      1.0000 0.94327  0.16826  0.26563  Biso   1.000  C
  H29      1.0000 0.94870  0.15070  0.23720  Biso   1.000  H
  C50      1.0000 0.92510  0.21739  0.26316  Biso   1.000  C
  H30      1.0000 0.91890  0.23270  0.23370  Biso   1.000  H
  C51      1.0000 0.85049  0.30019  0.27594  Biso   1.000  C
  C52      1.0000 0.81370  0.26338  0.27580  Biso   1.000  C
  H31      1.0000 0.81830  0.23380  0.29330  Biso   1.000  H
  C53      1.0000 0.96020  0.01880  0.16050  Biso   1.000  C
  H32      1.0000 0.93290  0.03190  0.17740  Biso   1.000  H
  C54      1.0000 0.95850  0.01940  0.11700  Biso   1.000  C
  H33      1.0000 0.93080  0.03220  0.10050  Biso   1.000  H
  N6       1.0000 0.96300  0.00800  0.01890  Biso   1.000  N
  O13      1.0000 0.98563  0.56503  0.45033  Biso   1.000  O
  O14      1.0000 0.06239  0.52806  0.45085  Biso   1.000  O
  O15      1.0000 0.02089  0.92886  0.34907  Biso   1.000  O
  O16      1.0000 0.02304  0.92982  0.26909  Biso   1.000  O
  N7       1.0000 0.10452  0.70702  0.30367  Biso   1.000  N
  C55      1.0000 0.03090  0.56087  0.43764  Biso   1.000  C
  C56      1.0000 0.05006  0.59805  0.39972  Biso   1.000  C
  C57      1.0000 0.01773  0.63231  0.37873  Biso   1.000  C
  H34      1.0000 0.98350  0.63140  0.38620  Biso   1.000  H
  C58      1.0000 0.03486  0.66710  0.34755  Biso   1.000  C
  H35      1.0000 0.01230  0.68990  0.33390  Biso   1.000  H
  C59      1.0000 0.08545  0.66939  0.33548  Biso   1.000  C
  C60      1.0000 0.11957  0.63413  0.35551  Biso   1.000  C
  H36      1.0000 0.15370  0.63440  0.34740  Biso   1.000  H
  C61      1.0000 0.10030  0.59891  0.38775  Biso   1.000  C
  H37      1.0000 0.12210  0.57540  0.40150  Biso   1.000  H
  C62      1.0000 0.08352  0.75696  0.30571  Biso   1.000  C
  C63      1.0000 0.07291  0.78009  0.34870  Biso   1.000  C
  H38      1.0000 0.07810  0.76260  0.37720  Biso   1.000  H
  C64      1.0000 0.05459  0.82906  0.35002  Biso   1.000  C
  H39      1.0000 0.04770  0.84430  0.37940  Biso   1.000  H
  C65      1.0000 0.04651  0.85533  0.30816  Biso   1.000  C
  C66      1.0000 0.02878  0.90837  0.30879  Biso   1.000  C
  C67      1.0000 0.05673  0.83174  0.26563  Biso   1.000  C
  H40      1.0000 0.05130  0.84930  0.23720  Biso   1.000  H
  C68      1.0000 0.07490  0.78261  0.26316  Biso   1.000  C
  H41      1.0000 0.08110  0.76730  0.23370  Biso   1.000  H
  C69      1.0000 0.14951  0.69981  0.27594  Biso   1.000  C
  C70      1.0000 0.18630  0.73662  0.27580  Biso   1.000  C
  H42      1.0000 0.18170  0.76620  0.29330  Biso   1.000  H
  C71      1.0000 0.03980  0.98120  0.16050  Biso   1.000  C
  H43      1.0000 0.06710  0.96810  0.17740  Biso   1.000  H
  C72      1.0000 0.04150  0.98060  0.11700  Biso   1.000  C
  H44      1.0000 0.06920  0.96780  0.10050  Biso   1.000  H
  N8       1.0000 0.03700  0.99200  0.01890  Biso   1.000  N
  O17      1.0000 0.06503  0.48563  0.04967  Biso   1.000  O
  O18      1.0000 0.02806  0.56239  0.04915  Biso   1.000  O
  O19      1.0000 0.42886  0.52089  0.15093  Biso   1.000  O
  O20      1.0000 0.42982  0.52304  0.23091  Biso   1.000  O
  N9       1.0000 0.20702  0.60452  0.19633  Biso   1.000  N
  C73      1.0000 0.06087  0.53090  0.06236  Biso   1.000  C
  C74      1.0000 0.09805  0.55006  0.10028  Biso   1.000  C
  C75      1.0000 0.13231  0.51773  0.12127  Biso   1.000  C
  H45      1.0000 0.13140  0.48350  0.11380  Biso   1.000  H
  C76      1.0000 0.16710  0.53486  0.15245  Biso   1.000  C
  H46      1.0000 0.18990  0.51230  0.16610  Biso   1.000  H
  C77      1.0000 0.16939  0.58545  0.16452  Biso   1.000  C
  C78      1.0000 0.13413  0.61957  0.14449  Biso   1.000  C
  H47      1.0000 0.13440  0.65370  0.15260  Biso   1.000  H
  C79      1.0000 0.09891  0.60030  0.11225  Biso   1.000  C
  H48      1.0000 0.07540  0.62210  0.09850  Biso   1.000  H
  C80      1.0000 0.25696  0.58352  0.19429  Biso   1.000  C
  C81      1.0000 0.28009  0.57291  0.15130  Biso   1.000  C
  H49      1.0000 0.26260  0.57810  0.12280  Biso   1.000  H
  C82      1.0000 0.32906  0.55459  0.14998  Biso   1.000  C
  H50      1.0000 0.34430  0.54770  0.12060  Biso   1.000  H
  C83      1.0000 0.35533  0.54651  0.19184  Biso   1.000  C
  C84      1.0000 0.40837  0.52878  0.19121  Biso   1.000  C
  C85      1.0000 0.33174  0.55673  0.23437  Biso   1.000  C
  H51      1.0000 0.34930  0.55130  0.26280  Biso   1.000  H
  C86      1.0000 0.28261  0.57490  0.23684  Biso   1.000  C
  H52      1.0000 0.26730  0.58110  0.26630  Biso   1.000  H
  C87      1.0000 0.19981  0.64951  0.22406  Biso   1.000  C
  C88      1.0000 0.23662  0.68630  0.22420  Biso   1.000  C
  H53      1.0000 0.26620  0.68170  0.20670  Biso   1.000  H
  C89      1.0000 0.48120  0.53980  0.33950  Biso   1.000  C
  H54      1.0000 0.46810  0.56710  0.32260  Biso   1.000  H
  C90      1.0000 0.48060  0.54150  0.38300  Biso   1.000  C
  H55      1.0000 0.46780  0.56920  0.39950  Biso   1.000  H
  N10      1.0000 0.49200  0.53700  0.48110  Biso   1.000  N
  O21      1.0000 0.93497  0.51437  0.04967  Biso   1.000  O
  O22      1.0000 0.97194  0.43761  0.04915  Biso   1.000  O
  O23      1.0000 0.57114  0.47911  0.15093  Biso   1.000  O
  O24      1.0000 0.57018  0.47696  0.23091  Biso   1.000  O
  N11      1.0000 0.79298  0.39548  0.19633  Biso   1.000  N
  C91      1.0000 0.93913  0.46910  0.06236  Biso   1.000  C
  C92      1.0000 0.90195  0.44994  0.10028  Biso   1.000  C
  C93      1.0000 0.86769  0.48227  0.12127  Biso   1.000  C
  H56      1.0000 0.86860  0.51650  0.11380  Biso   1.000  H
  C94      1.0000 0.83290  0.46514  0.15245  Biso   1.000  C
  H57      1.0000 0.81010  0.48770  0.16610  Biso   1.000  H
  C95      1.0000 0.83061  0.41455  0.16452  Biso   1.000  C
  C96      1.0000 0.86587  0.38043  0.14449  Biso   1.000  C
  H58      1.0000 0.86560  0.34630  0.15260  Biso   1.000  H
  C97      1.0000 0.90109  0.39970  0.11225  Biso   1.000  C
  H59      1.0000 0.92460  0.37790  0.09850  Biso   1.000  H
  C98      1.0000 0.74304  0.41648  0.19429  Biso   1.000  C
  C99      1.0000 0.71991  0.42709  0.15130  Biso   1.000  C
  H60      1.0000 0.73740  0.42190  0.12280  Biso   1.000  H
  C100     1.0000 0.67094  0.44541  0.14998  Biso   1.000  C
  H61      1.0000 0.65570  0.45230  0.12060  Biso   1.000  H
  C101     1.0000 0.64467  0.45349  0.19184  Biso   1.000  C
  C102     1.0000 0.59163  0.47122  0.19121  Biso   1.000  C
  C103     1.0000 0.66826  0.44327  0.23437  Biso   1.000  C
  H62      1.0000 0.65070  0.44870  0.26280  Biso   1.000  H
  C104     1.0000 0.71739  0.42510  0.23684  Biso   1.000  C
  H63      1.0000 0.73270  0.41890  0.26630  Biso   1.000  H
  C105     1.0000 0.80019  0.35049  0.22406  Biso   1.000  C
  C106     1.0000 0.76338  0.31370  0.22420  Biso   1.000  C
  H64      1.0000 0.73380  0.31830  0.20670  Biso   1.000  H
  C107     1.0000 0.51880  0.46020  0.33950  Biso   1.000  C
  H65      1.0000 0.53190  0.43290  0.32260  Biso   1.000  H
  C108     1.0000 0.51940  0.45850  0.38300  Biso   1.000  C
  H66      1.0000 0.53220  0.43080  0.39950  Biso   1.000  H
  N12      1.0000 0.50800  0.46300  0.48110  Biso   1.000  N
  O25      1.0000 0.48563  0.93497  0.04967  Biso   1.000  O
  O26      1.0000 0.56239  0.97194  0.04915  Biso   1.000  O
  O27      1.0000 0.52089  0.57114  0.15093  Biso   1.000  O
  O28      1.0000 0.52304  0.57018  0.23091  Biso   1.000  O
  N13      1.0000 0.60452  0.79298  0.19633  Biso   1.000  N
  C109     1.0000 0.53090  0.93913  0.06236  Biso   1.000  C
  C110     1.0000 0.55006  0.90195  0.10028  Biso   1.000  C
  C111     1.0000 0.51773  0.86769  0.12127  Biso   1.000  C
  H67      1.0000 0.48350  0.86860  0.11380  Biso   1.000  H
  C112     1.0000 0.53486  0.83290  0.15245  Biso   1.000  C
  H68      1.0000 0.51230  0.81010  0.16610  Biso   1.000  H
  C113     1.0000 0.58545  0.83061  0.16452  Biso   1.000  C
  C114     1.0000 0.61957  0.86587  0.14449  Biso   1.000  C
  H69      1.0000 0.65370  0.86560  0.15260  Biso   1.000  H
  C115     1.0000 0.60030  0.90109  0.11225  Biso   1.000  C
  H70      1.0000 0.62210  0.92460  0.09850  Biso   1.000  H
  C116     1.0000 0.58352  0.74304  0.19429  Biso   1.000  C
  C117     1.0000 0.57291  0.71991  0.15130  Biso   1.000  C
  H71      1.0000 0.57810  0.73740  0.12280  Biso   1.000  H
  C118     1.0000 0.55459  0.67094  0.14998  Biso   1.000  C
  H72      1.0000 0.54770  0.65570  0.12060  Biso   1.000  H
  C119     1.0000 0.54651  0.64467  0.19184  Biso   1.000  C
  C120     1.0000 0.52878  0.59163  0.19121  Biso   1.000  C
  C121     1.0000 0.55673  0.66826  0.23437  Biso   1.000  C
  H73      1.0000 0.55130  0.65070  0.26280  Biso   1.000  H
  C122     1.0000 0.57490  0.71739  0.23684  Biso   1.000  C
  H74      1.0000 0.58110  0.73270  0.26630  Biso   1.000  H
  C123     1.0000 0.64951  0.80019  0.22406  Biso   1.000  C
  C124     1.0000 0.68630  0.76338  0.22420  Biso   1.000  C
  H75      1.0000 0.68170  0.73380  0.20670  Biso   1.000  H
  C125     1.0000 0.53980  0.51880  0.33950  Biso   1.000  C
  H76      1.0000 0.56710  0.53190  0.32260  Biso   1.000  H
  C126     1.0000 0.54150  0.51940  0.38300  Biso   1.000  C
  H77      1.0000 0.56920  0.53220  0.39950  Biso   1.000  H
  N14      1.0000 0.53700  0.50800  0.48110  Biso   1.000  N
  O29      1.0000 0.51437  0.06503  0.04967  Biso   1.000  O
  O30      1.0000 0.43761  0.02806  0.04915  Biso   1.000  O
  O31      1.0000 0.47911  0.42886  0.15093  Biso   1.000  O
  O32      1.0000 0.47696  0.42982  0.23091  Biso   1.000  O
  N15      1.0000 0.39548  0.20702  0.19633  Biso   1.000  N
  C127     1.0000 0.46910  0.06087  0.06236  Biso   1.000  C
  C128     1.0000 0.44994  0.09805  0.10028  Biso   1.000  C
  C129     1.0000 0.48227  0.13231  0.12127  Biso   1.000  C
  H78      1.0000 0.51650  0.13140  0.11380  Biso   1.000  H
  C130     1.0000 0.46514  0.16710  0.15245  Biso   1.000  C
  H79      1.0000 0.48770  0.18990  0.16610  Biso   1.000  H
  C131     1.0000 0.41455  0.16939  0.16452  Biso   1.000  C
  C132     1.0000 0.38043  0.13413  0.14449  Biso   1.000  C
  H80      1.0000 0.34630  0.13440  0.15260  Biso   1.000  H
  C133     1.0000 0.39970  0.09891  0.11225  Biso   1.000  C
  H81      1.0000 0.37790  0.07540  0.09850  Biso   1.000  H
  C134     1.0000 0.41648  0.25696  0.19429  Biso   1.000  C
  C135     1.0000 0.42709  0.28009  0.15130  Biso   1.000  C
  H82      1.0000 0.42190  0.26260  0.12280  Biso   1.000  H
  C136     1.0000 0.44541  0.32906  0.14998  Biso   1.000  C
  H83      1.0000 0.45230  0.34430  0.12060  Biso   1.000  H
  C137     1.0000 0.45349  0.35533  0.19184  Biso   1.000  C
  C138     1.0000 0.47122  0.40837  0.19121  Biso   1.000  C
  C139     1.0000 0.44327  0.33174  0.23437  Biso   1.000  C
  H84      1.0000 0.44870  0.34930  0.26280  Biso   1.000  H
  C140     1.0000 0.42510  0.28261  0.23684  Biso   1.000  C
  H85      1.0000 0.41890  0.26730  0.26630  Biso   1.000  H
  C141     1.0000 0.35049  0.19981  0.22406  Biso   1.000  C
  C142     1.0000 0.31370  0.23662  0.22420  Biso   1.000  C
  H86      1.0000 0.31830  0.26620  0.20670  Biso   1.000  H
  C143     1.0000 0.46020  0.48120  0.33950  Biso   1.000  C
  H87      1.0000 0.43290  0.46810  0.32260  Biso   1.000  H
  C144     1.0000 0.45850  0.48060  0.38300  Biso   1.000  C
  H88      1.0000 0.43080  0.46780  0.39950  Biso   1.000  H
  N16      1.0000 0.46300  0.49200  0.48110  Biso   1.000  N
  O33      1.0000 0.56503  0.01437  0.54967  Biso   1.000  O
  O34      1.0000 0.52806  0.93761  0.54915  Biso   1.000  O
  O35      1.0000 0.92886  0.97911  0.65093  Biso   1.000  O
  O36      1.0000 0.92982  0.97696  0.73091  Biso   1.000  O
  N17      1.0000 0.70702  0.89548  0.69633  Biso   1.000  N
  C145     1.0000 0.56087  0.96910  0.56236  Biso   1.000  C
  C146     1.0000 0.59805  0.94994  0.60028  Biso   1.000  C
  C147     1.0000 0.63231  0.98227  0.62127  Biso   1.000  C
  H89      1.0000 0.63140  0.01650  0.61380  Biso   1.000  H
  C148     1.0000 0.66710  0.96514  0.65245  Biso   1.000  C
  H90      1.0000 0.68990  0.98770  0.66610  Biso   1.000  H
  C149     1.0000 0.66939  0.91455  0.66452  Biso   1.000  C
  C150     1.0000 0.63413  0.88043  0.64449  Biso   1.000  C
  H91      1.0000 0.63440  0.84630  0.65260  Biso   1.000  H
  C151     1.0000 0.59891  0.89970  0.61225  Biso   1.000  C
  H92      1.0000 0.57540  0.87790  0.59850  Biso   1.000  H
  C152     1.0000 0.75696  0.91648  0.69429  Biso   1.000  C
  C153     1.0000 0.78009  0.92709  0.65130  Biso   1.000  C
  H93      1.0000 0.76260  0.92190  0.62280  Biso   1.000  H
  C154     1.0000 0.82906  0.94541  0.64998  Biso   1.000  C
  H94      1.0000 0.84430  0.95230  0.62060  Biso   1.000  H
  C155     1.0000 0.85533  0.95349  0.69184  Biso   1.000  C
  C156     1.0000 0.90837  0.97122  0.69121  Biso   1.000  C
  C157     1.0000 0.83174  0.94327  0.73437  Biso   1.000  C
  H95      1.0000 0.84930  0.94870  0.76280  Biso   1.000  H
  C158     1.0000 0.78261  0.92510  0.73684  Biso   1.000  C
  H96      1.0000 0.76730  0.91890  0.76630  Biso   1.000  H
  C159     1.0000 0.69981  0.85049  0.72406  Biso   1.000  C
  C160     1.0000 0.73662  0.81370  0.72420  Biso   1.000  C
  H97      1.0000 0.76620  0.81830  0.70670  Biso   1.000  H
  C161     1.0000 0.98120  0.96020  0.83950  Biso   1.000  C
  H98      1.0000 0.96810  0.93290  0.82260  Biso   1.000  H
  C162     1.0000 0.98060  0.95850  0.88300  Biso   1.000  C
  H99      1.0000 0.96780  0.93080  0.89950  Biso   1.000  H
  N18      1.0000 0.99200  0.96300  0.98110  Biso   1.000  N
  O37      1.0000 0.43497  0.98563  0.54967  Biso   1.000  O
  O38      1.0000 0.47194  0.06239  0.54915  Biso   1.000  O
  O39      1.0000 0.07114  0.02089  0.65093  Biso   1.000  O
  O40      1.0000 0.07018  0.02304  0.73091  Biso   1.000  O
  N19      1.0000 0.29298  0.10452  0.69633  Biso   1.000  N
  C163     1.0000 0.43913  0.03090  0.56236  Biso   1.000  C
  C164     1.0000 0.40195  0.05006  0.60028  Biso   1.000  C
  C165     1.0000 0.36769  0.01773  0.62127  Biso   1.000  C
  H100     1.0000 0.36860  0.98350  0.61380  Biso   1.000  H
  C166     1.0000 0.33290  0.03486  0.65245  Biso   1.000  C
  H101     1.0000 0.31010  0.01230  0.66610  Biso   1.000  H
  C167     1.0000 0.33061  0.08545  0.66452  Biso   1.000  C
  C168     1.0000 0.36587  0.11957  0.64449  Biso   1.000  C
  H102     1.0000 0.36560  0.15370  0.65260  Biso   1.000  H
  C169     1.0000 0.40109  0.10030  0.61225  Biso   1.000  C
  H103     1.0000 0.42460  0.12210  0.59850  Biso   1.000  H
  C170     1.0000 0.24304  0.08352  0.69429  Biso   1.000  C
  C171     1.0000 0.21991  0.07291  0.65130  Biso   1.000  C
  H104     1.0000 0.23740  0.07810  0.62280  Biso   1.000  H
  C172     1.0000 0.17094  0.05459  0.64998  Biso   1.000  C
  H105     1.0000 0.15570  0.04770  0.62060  Biso   1.000  H
  C173     1.0000 0.14467  0.04651  0.69184  Biso   1.000  C
  C174     1.0000 0.09163  0.02878  0.69121  Biso   1.000  C
  C175     1.0000 0.16826  0.05673  0.73437  Biso   1.000  C
  H106     1.0000 0.15070  0.05130  0.76280  Biso   1.000  H
  C176     1.0000 0.21739  0.07490  0.73684  Biso   1.000  C
  H107     1.0000 0.23270  0.08110  0.76630  Biso   1.000  H
  C177     1.0000 0.30019  0.14951  0.72406  Biso   1.000  C
  C178     1.0000 0.26338  0.18630  0.72420  Biso   1.000  C
  H108     1.0000 0.23380  0.18170  0.70670  Biso   1.000  H
  C179     1.0000 0.01880  0.03980  0.83950  Biso   1.000  C
  H109     1.0000 0.03190  0.06710  0.82260  Biso   1.000  H
  C180     1.0000 0.01940  0.04150  0.88300  Biso   1.000  C
  H110     1.0000 0.03220  0.06920  0.89950  Biso   1.000  H
  N20      1.0000 0.00800  0.03700  0.98110  Biso   1.000  N
  O41      1.0000 0.98563  0.56503  0.54967  Biso   1.000  O
  O42      1.0000 0.06239  0.52806  0.54915  Biso   1.000  O
  O43      1.0000 0.02089  0.92886  0.65093  Biso   1.000  O
  O44      1.0000 0.02304  0.92982  0.73091  Biso   1.000  O
  N21      1.0000 0.10452  0.70702  0.69633  Biso   1.000  N
  C181     1.0000 0.03090  0.56087  0.56236  Biso   1.000  C
  C182     1.0000 0.05006  0.59805  0.60028  Biso   1.000  C
  C183     1.0000 0.01773  0.63231  0.62127  Biso   1.000  C
  H111     1.0000 0.98350  0.63140  0.61380  Biso   1.000  H
  C184     1.0000 0.03486  0.66710  0.65245  Biso   1.000  C
  H112     1.0000 0.01230  0.68990  0.66610  Biso   1.000  H
  C185     1.0000 0.08545  0.66939  0.66452  Biso   1.000  C
  C186     1.0000 0.11957  0.63413  0.64449  Biso   1.000  C
  H113     1.0000 0.15370  0.63440  0.65260  Biso   1.000  H
  C187     1.0000 0.10030  0.59891  0.61225  Biso   1.000  C
  H114     1.0000 0.12210  0.57540  0.59850  Biso   1.000  H
  C188     1.0000 0.08352  0.75696  0.69429  Biso   1.000  C
  C189     1.0000 0.07291  0.78009  0.65130  Biso   1.000  C
  H115     1.0000 0.07810  0.76260  0.62280  Biso   1.000  H
  C190     1.0000 0.05459  0.82906  0.64998  Biso   1.000  C
  H116     1.0000 0.04770  0.84430  0.62060  Biso   1.000  H
  C191     1.0000 0.04651  0.85533  0.69184  Biso   1.000  C
  C192     1.0000 0.02878  0.90837  0.69121  Biso   1.000  C
  C193     1.0000 0.05673  0.83174  0.73437  Biso   1.000  C
  H117     1.0000 0.05130  0.84930  0.76280  Biso   1.000  H
  C194     1.0000 0.07490  0.78261  0.73684  Biso   1.000  C
  H118     1.0000 0.08110  0.76730  0.76630  Biso   1.000  H
  C195     1.0000 0.14951  0.69981  0.72406  Biso   1.000  C
  C196     1.0000 0.18630  0.73662  0.72420  Biso   1.000  C
  H119     1.0000 0.18170  0.76620  0.70670  Biso   1.000  H
  C197     1.0000 0.03980  0.98120  0.83950  Biso   1.000  C
  H120     1.0000 0.06710  0.96810  0.82260  Biso   1.000  H
  C198     1.0000 0.04150  0.98060  0.88300  Biso   1.000  C
  H121     1.0000 0.06920  0.96780  0.89950  Biso   1.000  H
  N22      1.0000 0.03700  0.99200  0.98110  Biso   1.000  N
  O45      1.0000 0.01437  0.43497  0.54967  Biso   1.000  O
  O46      1.0000 0.93761  0.47194  0.54915  Biso   1.000  O
  O47      1.0000 0.97911  0.07114  0.65093  Biso   1.000  O
  O48      1.0000 0.97696  0.07018  0.73091  Biso   1.000  O
  N23      1.0000 0.89548  0.29298  0.69633  Biso   1.000  N
  C199     1.0000 0.96910  0.43913  0.56236  Biso   1.000  C
  C200     1.0000 0.94994  0.40195  0.60028  Biso   1.000  C
  C201     1.0000 0.98227  0.36769  0.62127  Biso   1.000  C
  H122     1.0000 0.01650  0.36860  0.61380  Biso   1.000  H
  C202     1.0000 0.96514  0.33290  0.65245  Biso   1.000  C
  H123     1.0000 0.98770  0.31010  0.66610  Biso   1.000  H
  C203     1.0000 0.91455  0.33061  0.66452  Biso   1.000  C
  C204     1.0000 0.88043  0.36587  0.64449  Biso   1.000  C
  H124     1.0000 0.84630  0.36560  0.65260  Biso   1.000  H
  C205     1.0000 0.89970  0.40109  0.61225  Biso   1.000  C
  H125     1.0000 0.87790  0.42460  0.59850  Biso   1.000  H
  C206     1.0000 0.91648  0.24304  0.69429  Biso   1.000  C
  C207     1.0000 0.92709  0.21991  0.65130  Biso   1.000  C
  H126     1.0000 0.92190  0.23740  0.62280  Biso   1.000  H
  C208     1.0000 0.94541  0.17094  0.64998  Biso   1.000  C
  H127     1.0000 0.95230  0.15570  0.62060  Biso   1.000  H
  C209     1.0000 0.95349  0.14467  0.69184  Biso   1.000  C
  C210     1.0000 0.97122  0.09163  0.69121  Biso   1.000  C
  C211     1.0000 0.94327  0.16826  0.73437  Biso   1.000  C
  H128     1.0000 0.94870  0.15070  0.76280  Biso   1.000  H
  C212     1.0000 0.92510  0.21739  0.73684  Biso   1.000  C
  H129     1.0000 0.91890  0.23270  0.76630  Biso   1.000  H
  C213     1.0000 0.85049  0.30019  0.72406  Biso   1.000  C
  C214     1.0000 0.81370  0.26338  0.72420  Biso   1.000  C
  H130     1.0000 0.81830  0.23380  0.70670  Biso   1.000  H
  C215     1.0000 0.96020  0.01880  0.83950  Biso   1.000  C
  H131     1.0000 0.93290  0.03190  0.82260  Biso   1.000  H
  C216     1.0000 0.95850  0.01940  0.88300  Biso   1.000  C
  H132     1.0000 0.93080  0.03220  0.89950  Biso   1.000  H
  N24      1.0000 0.96300  0.00800  0.98110  Biso   1.000  N
  O49      1.0000 0.93497  0.51437  0.95033  Biso   1.000  O
  O50      1.0000 0.97194  0.43761  0.95085  Biso   1.000  O
  O51      1.0000 0.57114  0.47911  0.84907  Biso   1.000  O
  O52      1.0000 0.57018  0.47696  0.76909  Biso   1.000  O
  N25      1.0000 0.79298  0.39548  0.80367  Biso   1.000  N
  C217     1.0000 0.93913  0.46910  0.93764  Biso   1.000  C
  C218     1.0000 0.90195  0.44994  0.89972  Biso   1.000  C
  C219     1.0000 0.86769  0.48227  0.87873  Biso   1.000  C
  H133     1.0000 0.86860  0.51650  0.88620  Biso   1.000  H
  C220     1.0000 0.83290  0.46514  0.84755  Biso   1.000  C
  H134     1.0000 0.81010  0.48770  0.83390  Biso   1.000  H
  C221     1.0000 0.83061  0.41455  0.83548  Biso   1.000  C
  C222     1.0000 0.86587  0.38043  0.85551  Biso   1.000  C
  H135     1.0000 0.86560  0.34630  0.84740  Biso   1.000  H
  C223     1.0000 0.90109  0.39970  0.88775  Biso   1.000  C
  H136     1.0000 0.92460  0.37790  0.90150  Biso   1.000  H
  C224     1.0000 0.74304  0.41648  0.80571  Biso   1.000  C
  C225     1.0000 0.71991  0.42709  0.84870  Biso   1.000  C
  H137     1.0000 0.73740  0.42190  0.87720  Biso   1.000  H
  C226     1.0000 0.67094  0.44541  0.85002  Biso   1.000  C
  H138     1.0000 0.65570  0.45230  0.87940  Biso   1.000  H
  C227     1.0000 0.64467  0.45349  0.80816  Biso   1.000  C
  C228     1.0000 0.59163  0.47122  0.80879  Biso   1.000  C
  C229     1.0000 0.66826  0.44327  0.76563  Biso   1.000  C
  H139     1.0000 0.65070  0.44870  0.73720  Biso   1.000  H
  C230     1.0000 0.71739  0.42510  0.76316  Biso   1.000  C
  H140     1.0000 0.73270  0.41890  0.73370  Biso   1.000  H
  C231     1.0000 0.80019  0.35049  0.77594  Biso   1.000  C
  C232     1.0000 0.76338  0.31370  0.77580  Biso   1.000  C
  H141     1.0000 0.73380  0.31830  0.79330  Biso   1.000  H
  C233     1.0000 0.51880  0.46020  0.66050  Biso   1.000  C
  H142     1.0000 0.53190  0.43290  0.67740  Biso   1.000  H
  C234     1.0000 0.51940  0.45850  0.61700  Biso   1.000  C
  H143     1.0000 0.53220  0.43080  0.60050  Biso   1.000  H
  N26      1.0000 0.50800  0.46300  0.51890  Biso   1.000  N
  O53      1.0000 0.06503  0.48563  0.95033  Biso   1.000  O
  O54      1.0000 0.02806  0.56239  0.95085  Biso   1.000  O
  O55      1.0000 0.42886  0.52089  0.84907  Biso   1.000  O
  O56      1.0000 0.42982  0.52304  0.76909  Biso   1.000  O
  N27      1.0000 0.20702  0.60452  0.80367  Biso   1.000  N
  C235     1.0000 0.06087  0.53090  0.93764  Biso   1.000  C
  C236     1.0000 0.09805  0.55006  0.89972  Biso   1.000  C
  C237     1.0000 0.13231  0.51773  0.87873  Biso   1.000  C
  H144     1.0000 0.13140  0.48350  0.88620  Biso   1.000  H
  C238     1.0000 0.16710  0.53486  0.84755  Biso   1.000  C
  H145     1.0000 0.18990  0.51230  0.83390  Biso   1.000  H
  C239     1.0000 0.16939  0.58545  0.83548  Biso   1.000  C
  C240     1.0000 0.13413  0.61957  0.85551  Biso   1.000  C
  H146     1.0000 0.13440  0.65370  0.84740  Biso   1.000  H
  C241     1.0000 0.09891  0.60030  0.88775  Biso   1.000  C
  H147     1.0000 0.07540  0.62210  0.90150  Biso   1.000  H
  C242     1.0000 0.25696  0.58352  0.80571  Biso   1.000  C
  C243     1.0000 0.28009  0.57291  0.84870  Biso   1.000  C
  H148     1.0000 0.26260  0.57810  0.87720  Biso   1.000  H
  C244     1.0000 0.32906  0.55459  0.85002  Biso   1.000  C
  H149     1.0000 0.34430  0.54770  0.87940  Biso   1.000  H
  C245     1.0000 0.35533  0.54651  0.80816  Biso   1.000  C
  C246     1.0000 0.40837  0.52878  0.80879  Biso   1.000  C
  C247     1.0000 0.33174  0.55673  0.76563  Biso   1.000  C
  H150     1.0000 0.34930  0.55130  0.73720  Biso   1.000  H
  C248     1.0000 0.28261  0.57490  0.76316  Biso   1.000  C
  H151     1.0000 0.26730  0.58110  0.73370  Biso   1.000  H
  C249     1.0000 0.19981  0.64951  0.77594  Biso   1.000  C
  C250     1.0000 0.23662  0.68630  0.77580  Biso   1.000  C
  H152     1.0000 0.26620  0.68170  0.79330  Biso   1.000  H
  C251     1.0000 0.48120  0.53980  0.66050  Biso   1.000  C
  H153     1.0000 0.46810  0.56710  0.67740  Biso   1.000  H
  C252     1.0000 0.48060  0.54150  0.61700  Biso   1.000  C
  H154     1.0000 0.46780  0.56920  0.60050  Biso   1.000  H
  N28      1.0000 0.49200  0.53700  0.51890  Biso   1.000  N
  O57      1.0000 0.51437  0.06503  0.95033  Biso   1.000  O
  O58      1.0000 0.43761  0.02806  0.95085  Biso   1.000  O
  O59      1.0000 0.47911  0.42886  0.84907  Biso   1.000  O
  O60      1.0000 0.47696  0.42982  0.76909  Biso   1.000  O
  N29      1.0000 0.39548  0.20702  0.80367  Biso   1.000  N
  C253     1.0000 0.46910  0.06087  0.93764  Biso   1.000  C
  C254     1.0000 0.44994  0.09805  0.89972  Biso   1.000  C
  C255     1.0000 0.48227  0.13231  0.87873  Biso   1.000  C
  H155     1.0000 0.51650  0.13140  0.88620  Biso   1.000  H
  C256     1.0000 0.46514  0.16710  0.84755  Biso   1.000  C
  H156     1.0000 0.48770  0.18990  0.83390  Biso   1.000  H
  C257     1.0000 0.41455  0.16939  0.83548  Biso   1.000  C
  C258     1.0000 0.38043  0.13413  0.85551  Biso   1.000  C
  H157     1.0000 0.34630  0.13440  0.84740  Biso   1.000  H
  C259     1.0000 0.39970  0.09891  0.88775  Biso   1.000  C
  H158     1.0000 0.37790  0.07540  0.90150  Biso   1.000  H
  C260     1.0000 0.41648  0.25696  0.80571  Biso   1.000  C
  C261     1.0000 0.42709  0.28009  0.84870  Biso   1.000  C
  H159     1.0000 0.42190  0.26260  0.87720  Biso   1.000  H
  C262     1.0000 0.44541  0.32906  0.85002  Biso   1.000  C
  H160     1.0000 0.45230  0.34430  0.87940  Biso   1.000  H
  C263     1.0000 0.45349  0.35533  0.80816  Biso   1.000  C
  C264     1.0000 0.47122  0.40837  0.80879  Biso   1.000  C
  C265     1.0000 0.44327  0.33174  0.76563  Biso   1.000  C
  H161     1.0000 0.44870  0.34930  0.73720  Biso   1.000  H
  C266     1.0000 0.42510  0.28261  0.76316  Biso   1.000  C
  H162     1.0000 0.41890  0.26730  0.73370  Biso   1.000  H
  C267     1.0000 0.35049  0.19981  0.77594  Biso   1.000  C
  C268     1.0000 0.31370  0.23662  0.77580  Biso   1.000  C
  H163     1.0000 0.31830  0.26620  0.79330  Biso   1.000  H
  C269     1.0000 0.46020  0.48120  0.66050  Biso   1.000  C
  H164     1.0000 0.43290  0.46810  0.67740  Biso   1.000  H
  C270     1.0000 0.45850  0.48060  0.61700  Biso   1.000  C
  H165     1.0000 0.43080  0.46780  0.60050  Biso   1.000  H
  N30      1.0000 0.46300  0.49200  0.51890  Biso   1.000  N
  O61      1.0000 0.48563  0.93497  0.95033  Biso   1.000  O
  O62      1.0000 0.56239  0.97194  0.95085  Biso   1.000  O
  O63      1.0000 0.52089  0.57114  0.84907  Biso   1.000  O
  O64      1.0000 0.52304  0.57018  0.76909  Biso   1.000  O
  N31      1.0000 0.60452  0.79298  0.80367  Biso   1.000  N
  C271     1.0000 0.53090  0.93913  0.93764  Biso   1.000  C
  C272     1.0000 0.55006  0.90195  0.89972  Biso   1.000  C
  C273     1.0000 0.51773  0.86769  0.87873  Biso   1.000  C
  H166     1.0000 0.48350  0.86860  0.88620  Biso   1.000  H
  C274     1.0000 0.53486  0.83290  0.84755  Biso   1.000  C
  H167     1.0000 0.51230  0.81010  0.83390  Biso   1.000  H
  C275     1.0000 0.58545  0.83061  0.83548  Biso   1.000  C
  C276     1.0000 0.61957  0.86587  0.85551  Biso   1.000  C
  H168     1.0000 0.65370  0.86560  0.84740  Biso   1.000  H
  C277     1.0000 0.60030  0.90109  0.88775  Biso   1.000  C
  H169     1.0000 0.62210  0.92460  0.90150  Biso   1.000  H
  C278     1.0000 0.58352  0.74304  0.80571  Biso   1.000  C
  C279     1.0000 0.57291  0.71991  0.84870  Biso   1.000  C
  H170     1.0000 0.57810  0.73740  0.87720  Biso   1.000  H
  C280     1.0000 0.55459  0.67094  0.85002  Biso   1.000  C
  H171     1.0000 0.54770  0.65570  0.87940  Biso   1.000  H
  C281     1.0000 0.54651  0.64467  0.80816  Biso   1.000  C
  C282     1.0000 0.52878  0.59163  0.80879  Biso   1.000  C
  C283     1.0000 0.55673  0.66826  0.76563  Biso   1.000  C
  H172     1.0000 0.55130  0.65070  0.73720  Biso   1.000  H
  C284     1.0000 0.57490  0.71739  0.76316  Biso   1.000  C
  H173     1.0000 0.58110  0.73270  0.73370  Biso   1.000  H
  C285     1.0000 0.64951  0.80019  0.77594  Biso   1.000  C
  C286     1.0000 0.68630  0.76338  0.77580  Biso   1.000  C
  H174     1.0000 0.68170  0.73380  0.79330  Biso   1.000  H
  C287     1.0000 0.53980  0.51880  0.66050  Biso   1.000  C
  H175     1.0000 0.56710  0.53190  0.67740  Biso   1.000  H
  C288     1.0000 0.54150  0.51940  0.61700  Biso   1.000  C
  H176     1.0000 0.56920  0.53220  0.60050  Biso   1.000  H
  N32      1.0000 0.53700  0.50800  0.51890  Biso   1.000  N
  Cu1      1.0000 0.47759  0.95571  0.50000  Biso   1.000  Cu
  Cu2      1.0000 0.52241  0.04429  0.50000  Biso   1.000  Cu
  Cu3      1.0000 0.04429  0.47759  0.50000  Biso   1.000  Cu
  Cu4      1.0000 0.95571  0.52241  0.50000  Biso   1.000  Cu
  Cu5      1.0000 0.02241  0.45571  0.00000  Biso   1.000  Cu
  Cu6      1.0000 0.97759  0.54429  0.00000  Biso   1.000  Cu
  Cu7      1.0000 0.45571  0.97759  0.00000  Biso   1.000  Cu
  Cu8      1.0000 0.54429  0.02241  0.00000  Biso   1.000  Cu
  Cu9      1.0000 0.00000  0.00000  0.35610  Biso   1.000  Cu
  Cu10     1.0000 0.00000  0.00000  0.26145  Biso   1.000  Cu
  N33      1.0000 0.00000  0.00000  0.18610  Biso   1.000  N
  C289     1.0000 0.00000  0.00000  0.09390  Biso   1.000  C
  C290     1.0000 0.00000  0.00000  0.04490  Biso   1.000  C
  Cu11     1.0000 0.50000  0.50000  0.14390  Biso   1.000  Cu
  Cu12     1.0000 0.50000  0.50000  0.23855  Biso   1.000  Cu
  N34      1.0000 0.50000  0.50000  0.31390  Biso   1.000  N
  C291     1.0000 0.50000  0.50000  0.40610  Biso   1.000  C
  C292     1.0000 0.50000  0.50000  0.45510  Biso   1.000  C
  Cu13     1.0000 0.00000  0.00000  0.64390  Biso   1.000  Cu
  Cu14     1.0000 0.00000  0.00000  0.73855  Biso   1.000  Cu
  N35      1.0000 0.00000  0.00000  0.81390  Biso   1.000  N
  C293     1.0000 0.00000  0.00000  0.90610  Biso   1.000  C
  C294     1.0000 0.00000  0.00000  0.95510  Biso   1.000  C
  Cu15     1.0000 0.50000  0.50000  0.85610  Biso   1.000  Cu
  Cu16     1.0000 0.50000  0.50000  0.76145  Biso   1.000  Cu
  N36      1.0000 0.50000  0.50000  0.68610  Biso   1.000  N
  C295     1.0000 0.50000  0.50000  0.59390  Biso   1.000  C
  C296     1.0000 0.50000  0.50000  0.54490  Biso   1.000  C
  C297     1.0000 0.34377  0.15623  0.25000  Biso   1.000  C
  H177     1.0000 0.36860  0.13140  0.25000  Biso   1.000  H
  C298     1.0000 0.27040  0.22960  0.25000  Biso   1.000  C
  H178     1.0000 0.24550  0.25450  0.25000  Biso   1.000  H
  C299     1.0000 0.65623  0.84377  0.25000  Biso   1.000  C
  H179     1.0000 0.63140  0.86860  0.25000  Biso   1.000  H
  C300     1.0000 0.72960  0.77040  0.25000  Biso   1.000  C
  H180     1.0000 0.75450  0.74550  0.25000  Biso   1.000  H
  C301     1.0000 0.84377  0.34377  0.25000  Biso   1.000  C
  H181     1.0000 0.86860  0.36860  0.25000  Biso   1.000  H
  C302     1.0000 0.77040  0.27040  0.25000  Biso   1.000  C
  H182     1.0000 0.74550  0.24550  0.25000  Biso   1.000  H
  C303     1.0000 0.15623  0.65623  0.25000  Biso   1.000  C
  H183     1.0000 0.13140  0.63140  0.25000  Biso   1.000  H
  C304     1.0000 0.22960  0.72960  0.25000  Biso   1.000  C
  H184     1.0000 0.25450  0.75450  0.25000  Biso   1.000  H
  C305     1.0000 0.65623  0.84377  0.75000  Biso   1.000  C
  H185     1.0000 0.63140  0.86860  0.75000  Biso   1.000  H
  C306     1.0000 0.72960  0.77040  0.75000  Biso   1.000  C
  H186     1.0000 0.75450  0.74550  0.75000  Biso   1.000  H
  C307     1.0000 0.34377  0.15623  0.75000  Biso   1.000  C
  H187     1.0000 0.36860  0.13140  0.75000  Biso   1.000  H
  C308     1.0000 0.27040  0.22960  0.75000  Biso   1.000  C
  H188     1.0000 0.24550  0.25450  0.75000  Biso   1.000  H
  C309     1.0000 0.15623  0.65623  0.75000  Biso   1.000  C
  H189     1.0000 0.13140  0.63140  0.75000  Biso   1.000  H
  C310     1.0000 0.22960  0.72960  0.75000  Biso   1.000  C
  H190     1.0000 0.25450  0.75450  0.75000  Biso   1.000  H
  C311     1.0000 0.84377  0.34377  0.75000  Biso   1.000  C
  H191     1.0000 0.86860  0.36860  0.75000  Biso   1.000  H
  C312     1.0000 0.77040  0.27040  0.75000  Biso   1.000  C
  H192     1.0000 0.74550  0.24550  0.75000  Biso   1.000  H
