data_image0
_cell_length_a       9.9435
_cell_length_b       13.3966
_cell_length_c       16.5649
_cell_angle_alpha    97.292
_cell_angle_beta     101.943
_cell_angle_gamma    100.463

_symmetry_space_group_name_H-M    "P 1"
_symmetry_int_tables_number       1

loop_
  _symmetry_equiv_pos_as_xyz
  'x, y, z'

loop_
  _atom_site_label
  _atom_site_occupancy
  _atom_site_fract_x
  _atom_site_fract_y
  _atom_site_fract_z
  _atom_site_thermal_displace_type
  _atom_site_B_iso_or_equiv
  _atom_site_type_symbol
  Co1      1.0000 0.61666  0.73918  0.03436  Biso   1.000  Co
  Co2      1.0000 0.63631  0.71035  0.21763  Biso   1.000  Co
  Co3      1.0000 0.62823  0.47616  0.06355  Biso   1.000  Co
  O1       1.0000 0.47550  0.70530  0.11281  Biso   1.000  O
  O2       1.0000 0.28860  0.59680  0.02797  Biso   1.000  O
  O3       1.0000 0.77270  0.71720  0.13508  Biso   1.000  O
  O4       1.0000 0.83010  0.56480  0.10811  Biso   1.000  O
  O5       1.0000 0.48790  0.32420  0.40500  Biso   1.000  O
  O6       1.0000 0.31410  0.29310  0.46640  Biso   1.000  O
  H1       1.0000 0.29740  0.35090  0.46710  Biso   1.000  H
  O7       1.0000 0.66840  0.36560  0.13718  Biso   1.000  O
  O8       1.0000 0.52620  0.22450  0.05530  Biso   1.000  O
  O9       1.0000 0.65850  0.88950  0.09865  Biso   1.000  O
  O10      1.0000 0.67160  0.86650  0.23282  Biso   1.000  O
  O11      1.0000 0.19260  0.28130  0.68960  Biso   1.000  O
  O12      1.0000 0.20870  0.44320  0.66580  Biso   1.000  O
  O13      1.0000 0.58110  0.58630  0.98540  Biso   1.000  O
  C1       1.0000 0.19880  0.86140  0.21570  Biso   1.000  C
  C2       1.0000 0.29210  0.81320  0.18110  Biso   1.000  C
  H2       1.0000 0.38640  0.84600  0.19220  Biso   1.000  H
  C3       1.0000 0.24610  0.71660  0.13040  Biso   1.000  C
  C4       1.0000 0.10620  0.66630  0.11530  Biso   1.000  C
  H3       1.0000 0.07560  0.60150  0.08190  Biso   1.000  H
  C5       1.0000 0.01110  0.71250  0.14980  Biso   1.000  C
  C6       1.0000 0.05750  0.81010  0.19960  Biso   1.000  C
  H4       1.0000 0.99420  0.84130  0.22220  Biso   1.000  H
  C7       1.0000 0.34330  0.66820  0.08770  Biso   1.000  C
  C8       1.0000 0.86000  0.65970  0.12970  Biso   1.000  C
  C9       1.0000 0.24690  0.96630  0.26750  Biso   1.000  C
  C10      1.0000 0.35640  0.03720  0.25260  Biso   1.000  C
  H5       1.0000 0.40100  0.01810  0.21080  Biso   1.000  H
  C11      1.0000 0.39940  0.13500  0.29880  Biso   1.000  C
  H6       1.0000 0.47470  0.18050  0.28920  Biso   1.000  H
  C12      1.0000 0.33140  0.16640  0.35960  Biso   1.000  C
  C13      1.0000 0.22200  0.09650  0.37540  Biso   1.000  C
  H7       1.0000 0.17710  0.11610  0.41690  Biso   1.000  H
  C14      1.0000 0.18030  0.99840  0.32960  Biso   1.000  C
  H8       1.0000 0.10630  0.95250  0.34010  Biso   1.000  H
  C15      1.0000 0.37600  0.27350  0.40740  Biso   1.000  C
  C16      1.0000 0.79330  0.18240  0.31650  Biso   1.000  C
  C17      1.0000 0.74540  0.24560  0.26080  Biso   1.000  C
  H9       1.0000 0.76160  0.31630  0.27890  Biso   1.000  H
  C18      1.0000 0.67400  0.20390  0.17880  Biso   1.000  C
  C19      1.0000 0.65220  0.09830  0.14960  Biso   1.000  C
  H10      1.0000 0.60690  0.07100  0.09410  Biso   1.000  H
  C20      1.0000 0.69900  0.03420  0.20460  Biso   1.000  C
  C21      1.0000 0.76720  0.07650  0.28690  Biso   1.000  C
  H11      1.0000 0.79650  0.03320  0.32350  Biso   1.000  H
  C22      1.0000 0.61970  0.27200  0.11900  Biso   1.000  C
  C23      1.0000 0.67440  0.92050  0.17590  Biso   1.000  C
  C24      1.0000 0.87500  0.22530  0.40430  Biso   1.000  C
  C25      1.0000 0.90950  0.32910  0.43530  Biso   1.000  C
  H12      1.0000 0.87230  0.37390  0.40290  Biso   1.000  H
  C26      1.0000 0.99900  0.36920  0.51410  Biso   1.000  C
  H13      1.0000 0.02110  0.44000  0.53260  Biso   1.000  H
  C27      1.0000 0.05470  0.30610  0.56450  Biso   1.000  C
  C28      1.0000 0.01240  0.20160  0.53680  Biso   1.000  C
  H14      1.0000 0.04380  0.15660  0.57110  Biso   1.000  H
  C29      1.0000 0.92390  0.16220  0.45870  Biso   1.000  C
  H15      1.0000 0.89630  0.09110  0.44220  Biso   1.000  H
  C30      1.0000 0.15970  0.34810  0.64650  Biso   1.000  C
  H16      1.0000 0.61300  0.58800  0.95500  Biso   1.000  H
  O14      1.0000 0.44460  0.34710  0.37870  Biso   1.000  O
  Co4      1.0000 0.38334  0.26082  0.96564  Biso   1.000  Co
  Co5      1.0000 0.36369  0.28965  0.78237  Biso   1.000  Co
  Co6      1.0000 0.37177  0.52384  0.93645  Biso   1.000  Co
  O15      1.0000 0.52450  0.29470  0.88719  Biso   1.000  O
  O16      1.0000 0.71140  0.40320  0.97203  Biso   1.000  O
  O17      1.0000 0.22730  0.28280  0.86492  Biso   1.000  O
  O18      1.0000 0.16990  0.43520  0.89189  Biso   1.000  O
  O19      1.0000 0.51210  0.67580  0.59500  Biso   1.000  O
  O20      1.0000 0.68590  0.70690  0.53360  Biso   1.000  O
  H17      1.0000 0.70260  0.64910  0.53290  Biso   1.000  H
  O21      1.0000 0.33160  0.63440  0.86282  Biso   1.000  O
  O22      1.0000 0.47380  0.77550  0.94470  Biso   1.000  O
  O23      1.0000 0.34150  0.11050  0.90135  Biso   1.000  O
  O24      1.0000 0.32840  0.13350  0.76718  Biso   1.000  O
  O25      1.0000 0.80740  0.71870  0.31040  Biso   1.000  O
  O26      1.0000 0.79130  0.55680  0.33420  Biso   1.000  O
  O27      1.0000 0.41890  0.41370  0.01460  Biso   1.000  O
  C31      1.0000 0.80120  0.13860  0.78430  Biso   1.000  C
  C32      1.0000 0.70790  0.18680  0.81890  Biso   1.000  C
  H18      1.0000 0.61360  0.15400  0.80780  Biso   1.000  H
  C33      1.0000 0.75390  0.28340  0.86960  Biso   1.000  C
  C34      1.0000 0.89380  0.33370  0.88470  Biso   1.000  C
  H19      1.0000 0.92440  0.39850  0.91810  Biso   1.000  H
  C35      1.0000 0.98890  0.28750  0.85020  Biso   1.000  C
  C36      1.0000 0.94250  0.18990  0.80040  Biso   1.000  C
  H20      1.0000 0.00580  0.15870  0.77780  Biso   1.000  H
  C37      1.0000 0.65670  0.33180  0.91230  Biso   1.000  C
  C38      1.0000 0.14000  0.34030  0.87030  Biso   1.000  C
  C39      1.0000 0.75310  0.03370  0.73250  Biso   1.000  C
  C40      1.0000 0.64360  0.96280  0.74740  Biso   1.000  C
  H21      1.0000 0.59900  0.98190  0.78920  Biso   1.000  H
  C41      1.0000 0.60060  0.86500  0.70120  Biso   1.000  C
  H22      1.0000 0.52530  0.81950  0.71080  Biso   1.000  H
  C42      1.0000 0.66860  0.83360  0.64040  Biso   1.000  C
  C43      1.0000 0.77800  0.90350  0.62460  Biso   1.000  C
  H23      1.0000 0.82290  0.88390  0.58310  Biso   1.000  H
  C44      1.0000 0.81970  0.00160  0.67040  Biso   1.000  C
  H24      1.0000 0.89370  0.04750  0.65990  Biso   1.000  H
  C45      1.0000 0.62400  0.72650  0.59260  Biso   1.000  C
  C46      1.0000 0.20670  0.81760  0.68350  Biso   1.000  C
  C47      1.0000 0.25460  0.75440  0.73920  Biso   1.000  C
  H25      1.0000 0.23840  0.68370  0.72110  Biso   1.000  H
  C48      1.0000 0.32600  0.79610  0.82120  Biso   1.000  C
  C49      1.0000 0.34780  0.90170  0.85040  Biso   1.000  C
  H26      1.0000 0.39310  0.92900  0.90590  Biso   1.000  H
  C50      1.0000 0.30100  0.96580  0.79540  Biso   1.000  C
  C51      1.0000 0.23280  0.92350  0.71310  Biso   1.000  C
  H27      1.0000 0.20350  0.96680  0.67650  Biso   1.000  H
  C52      1.0000 0.38030  0.72800  0.88100  Biso   1.000  C
  C53      1.0000 0.32560  0.07950  0.82410  Biso   1.000  C
  C54      1.0000 0.12500  0.77470  0.59570  Biso   1.000  C
  C55      1.0000 0.09050  0.67090  0.56470  Biso   1.000  C
  H28      1.0000 0.12770  0.62610  0.59710  Biso   1.000  H
  C56      1.0000 0.00100  0.63080  0.48590  Biso   1.000  C
  H29      1.0000 0.97890  0.56000  0.46740  Biso   1.000  H
  C57      1.0000 0.94530  0.69390  0.43550  Biso   1.000  C
  C58      1.0000 0.98760  0.79840  0.46320  Biso   1.000  C
  H30      1.0000 0.95620  0.84340  0.42890  Biso   1.000  H
  C59      1.0000 0.07610  0.83780  0.54130  Biso   1.000  C
  H31      1.0000 0.10370  0.90890  0.55780  Biso   1.000  H
  C60      1.0000 0.84030  0.65190  0.35350  Biso   1.000  C
  H32      1.0000 0.38700  0.41200  0.04500  Biso   1.000  H
  O28      1.0000 0.55540  0.65290  0.62130  Biso   1.000  O
