data_image0
_cell_length_a       18.2715
_cell_length_b       18.2715
_cell_length_c       17.0912
_cell_angle_alpha    90
_cell_angle_beta     90
_cell_angle_gamma    90

_symmetry_space_group_name_H-M    "P 1"
_symmetry_int_tables_number       1

loop_
  _symmetry_equiv_pos_as_xyz
  'x, y, z'

loop_
  _atom_site_label
  _atom_site_occupancy
  _atom_site_fract_x
  _atom_site_fract_y
  _atom_site_fract_z
  _atom_site_thermal_displace_type
  _atom_site_B_iso_or_equiv
  _atom_site_type_symbol
  C1       1.0000 0.72553  0.00421  0.48986  Biso   1.000  C
  H1       1.0000 0.75350  0.00410  0.44300  Biso   1.000  H
  C2       1.0000 0.70800  0.07008  0.52600  Biso   1.000  C
  C3       1.0000 0.66710  0.07022  0.59450  Biso   1.000  C
  H2       1.0000 0.65510  0.11520  0.61920  Biso   1.000  H
  C4       1.0000 0.64370  0.00450  0.62700  Biso   1.000  C
  C5       1.0000 0.66120  0.93863  0.59090  Biso   1.000  C
  H3       1.0000 0.64530  0.89370  0.61310  Biso   1.000  H
  C6       1.0000 0.70220  0.93848  0.52230  Biso   1.000  C
  C7       1.0000 0.54660  0.05520  0.99720  Biso   1.000  C
  C8       1.0000 0.54200  0.10600  0.05670  Biso   1.000  C
  C9       1.0000 0.50549  0.14524  0.18770  Biso   1.000  C
  C10      1.0000 0.43955  0.16446  0.22266  Biso   1.000  C
  H4       1.0000 0.39460  0.14830  0.20060  Biso   1.000  H
  C11      1.0000 0.43933  0.20730  0.28987  Biso   1.000  C
  C12      1.0000 0.50506  0.23092  0.32212  Biso   1.000  C
  H5       1.0000 0.50490  0.26020  0.36800  Biso   1.000  H
  C13      1.0000 0.57100  0.21170  0.28720  Biso   1.000  C
  C14      1.0000 0.57122  0.16886  0.21995  Biso   1.000  C
  H6       1.0000 0.61630  0.15570  0.19610  Biso   1.000  H
  C15      1.0000 0.53970  0.93500  0.94769  Biso   1.000  C
  C16      1.0000 0.53280  0.98310  0.01030  Biso   1.000  C
  C17      1.0000 0.51290  0.95688  0.08360  Biso   1.000  C
  C18      1.0000 0.50014  0.11739  0.09431  Biso   1.000  C
  C19      1.0000 0.49330  0.16550  0.03169  Biso   1.000  C
  C20      1.0000 0.52660  0.86080  0.95838  Biso   1.000  C
  C21      1.0000 0.51790  0.08260  0.13090  Biso   1.000  C
  C22      1.0000 0.50800  0.00880  0.14500  Biso   1.000  C
  C23      1.0000 0.61920  0.99660  0.71850  Biso   1.000  C
  C24      1.0000 0.54480  0.98780  0.73280  Biso   1.000  C
  C25      1.0000 0.52080  0.96740  0.80680  Biso   1.000  C
  C26      1.0000 0.57110  0.95560  0.86650  Biso   1.000  C
  C27      1.0000 0.64550  0.96440  0.85220  Biso   1.000  C
  C28      1.0000 0.66950  0.98490  0.77820  Biso   1.000  C
  C29      1.0000 0.57940  0.01230  0.68210  Biso   1.000  C
  C30      1.0000 0.60570  0.03150  0.75790  Biso   1.000  C
  C31      1.0000 0.44640  0.95780  0.81840  Biso   1.000  C
  Cu1      1.0000 0.70856  0.71633  0.46098  Biso   1.000  Cu
  Cu2      1.0000 0.78361  0.79074  0.35394  Biso   1.000  Cu
  C32      1.0000 0.64200  0.22760  0.32820  Biso   1.000  C
  C33      1.0000 0.37050  0.22210  0.33340  Biso   1.000  C
  O1       1.0000 0.76200  0.87260  0.42090  Biso   1.000  O
  C34      1.0000 0.71950  0.86870  0.48440  Biso   1.000  C
  O2       1.0000 0.69630  0.80890  0.51290  Biso   1.000  O
  O3       1.0000 0.76360  0.13390  0.42260  Biso   1.000  O
  C35      1.0000 0.72760  0.13860  0.48360  Biso   1.000  C
  O4       1.0000 0.70470  0.19730  0.51810  Biso   1.000  O
  O5       1.0000 0.31210  0.19770  0.30070  Biso   1.000  O
  O6       1.0000 0.69980  0.20430  0.30200  Biso   1.000  O
  O7       1.0000 0.63450  0.26470  0.39340  Biso   1.000  O
  O8       1.0000 0.37350  0.26080  0.39120  Biso   1.000  O
  O9       1.0000 0.52300  0.81320  0.89580  Biso   1.000  O
  O10      1.0000 0.68940  0.94630  0.91750  Biso   1.000  O
  C36      1.0000 0.76370  0.92660  0.91140  Biso   1.000  C
  C37      1.0000 0.51740  0.73880  0.90160  Biso   1.000  C
  C38      1.0000 0.45430  0.69490  0.92500  Biso   1.000  C
  C39      1.0000 0.80570  0.89000  0.84200  Biso   1.000  C
  C40      1.0000 0.27447  0.99579  0.48986  Biso   1.000  C
  H7       1.0000 0.24650  0.99590  0.44300  Biso   1.000  H
  C41      1.0000 0.29200  0.92992  0.52600  Biso   1.000  C
  C42      1.0000 0.33290  0.92978  0.59450  Biso   1.000  C
  H8       1.0000 0.34490  0.88480  0.61920  Biso   1.000  H
  C43      1.0000 0.35630  0.99550  0.62700  Biso   1.000  C
  C44      1.0000 0.33880  0.06137  0.59090  Biso   1.000  C
  H9       1.0000 0.35470  0.10630  0.61310  Biso   1.000  H
  C45      1.0000 0.29780  0.06152  0.52230  Biso   1.000  C
  C46      1.0000 0.45340  0.94480  0.99720  Biso   1.000  C
  C47      1.0000 0.45800  0.89400  0.05670  Biso   1.000  C
  C48      1.0000 0.49451  0.85476  0.18770  Biso   1.000  C
  C49      1.0000 0.56045  0.83554  0.22266  Biso   1.000  C
  H10      1.0000 0.60540  0.85170  0.20060  Biso   1.000  H
  C50      1.0000 0.56067  0.79270  0.28987  Biso   1.000  C
  C51      1.0000 0.49494  0.76908  0.32212  Biso   1.000  C
  H11      1.0000 0.49510  0.73980  0.36800  Biso   1.000  H
  C52      1.0000 0.42900  0.78830  0.28720  Biso   1.000  C
  C53      1.0000 0.42878  0.83114  0.21995  Biso   1.000  C
  H12      1.0000 0.38370  0.84430  0.19610  Biso   1.000  H
  C54      1.0000 0.46030  0.06500  0.94769  Biso   1.000  C
  C55      1.0000 0.46720  0.01690  0.01030  Biso   1.000  C
  C56      1.0000 0.48710  0.04312  0.08360  Biso   1.000  C
  C57      1.0000 0.49986  0.88261  0.09431  Biso   1.000  C
  C58      1.0000 0.50670  0.83450  0.03169  Biso   1.000  C
  C59      1.0000 0.47340  0.13920  0.95838  Biso   1.000  C
  C60      1.0000 0.48210  0.91740  0.13090  Biso   1.000  C
  C61      1.0000 0.49200  0.99120  0.14500  Biso   1.000  C
  C62      1.0000 0.38080  0.00340  0.71850  Biso   1.000  C
  C63      1.0000 0.45520  0.01220  0.73280  Biso   1.000  C
  C64      1.0000 0.47920  0.03260  0.80680  Biso   1.000  C
  C65      1.0000 0.42890  0.04440  0.86650  Biso   1.000  C
  C66      1.0000 0.35450  0.03560  0.85220  Biso   1.000  C
  C67      1.0000 0.33050  0.01510  0.77820  Biso   1.000  C
  C68      1.0000 0.42060  0.98770  0.68210  Biso   1.000  C
  C69      1.0000 0.39430  0.96850  0.75790  Biso   1.000  C
  C70      1.0000 0.55360  0.04220  0.81840  Biso   1.000  C
  Cu3      1.0000 0.29144  0.28367  0.46098  Biso   1.000  Cu
  Cu4      1.0000 0.21639  0.20926  0.35394  Biso   1.000  Cu
  C71      1.0000 0.35800  0.77240  0.32820  Biso   1.000  C
  C72      1.0000 0.62950  0.77790  0.33340  Biso   1.000  C
  O11      1.0000 0.23800  0.12740  0.42090  Biso   1.000  O
  C73      1.0000 0.28050  0.13130  0.48440  Biso   1.000  C
  O12      1.0000 0.30370  0.19110  0.51290  Biso   1.000  O
  O13      1.0000 0.23640  0.86610  0.42260  Biso   1.000  O
  C74      1.0000 0.27240  0.86140  0.48360  Biso   1.000  C
  O14      1.0000 0.29530  0.80270  0.51810  Biso   1.000  O
  O15      1.0000 0.68790  0.80230  0.30070  Biso   1.000  O
  O16      1.0000 0.30020  0.79570  0.30200  Biso   1.000  O
  O17      1.0000 0.36550  0.73530  0.39340  Biso   1.000  O
  O18      1.0000 0.62650  0.73920  0.39120  Biso   1.000  O
  O19      1.0000 0.47700  0.18680  0.89580  Biso   1.000  O
  O20      1.0000 0.31060  0.05370  0.91750  Biso   1.000  O
  C75      1.0000 0.23630  0.07340  0.91140  Biso   1.000  C
  C76      1.0000 0.48260  0.26120  0.90160  Biso   1.000  C
  C77      1.0000 0.54570  0.30510  0.92500  Biso   1.000  C
  C78      1.0000 0.19430  0.11000  0.84200  Biso   1.000  C
  C79      1.0000 0.99579  0.72553  0.48986  Biso   1.000  C
  H13      1.0000 0.99590  0.75350  0.44300  Biso   1.000  H
  C80      1.0000 0.92992  0.70800  0.52600  Biso   1.000  C
  C81      1.0000 0.92978  0.66710  0.59450  Biso   1.000  C
  H14      1.0000 0.88480  0.65510  0.61920  Biso   1.000  H
  C82      1.0000 0.99550  0.64370  0.62700  Biso   1.000  C
  C83      1.0000 0.06137  0.66120  0.59090  Biso   1.000  C
  H15      1.0000 0.10630  0.64530  0.61310  Biso   1.000  H
  C84      1.0000 0.06152  0.70220  0.52230  Biso   1.000  C
  C85      1.0000 0.94480  0.54660  0.99720  Biso   1.000  C
  C86      1.0000 0.89400  0.54200  0.05670  Biso   1.000  C
  C87      1.0000 0.85476  0.50549  0.18770  Biso   1.000  C
  C88      1.0000 0.83554  0.43955  0.22266  Biso   1.000  C
  H16      1.0000 0.85170  0.39460  0.20060  Biso   1.000  H
  C89      1.0000 0.79270  0.43933  0.28987  Biso   1.000  C
  C90      1.0000 0.76908  0.50506  0.32212  Biso   1.000  C
  H17      1.0000 0.73980  0.50490  0.36800  Biso   1.000  H
  C91      1.0000 0.78830  0.57100  0.28720  Biso   1.000  C
  C92      1.0000 0.83114  0.57122  0.21995  Biso   1.000  C
  H18      1.0000 0.84430  0.61630  0.19610  Biso   1.000  H
  C93      1.0000 0.06500  0.53970  0.94769  Biso   1.000  C
  C94      1.0000 0.01690  0.53280  0.01030  Biso   1.000  C
  C95      1.0000 0.04312  0.51290  0.08360  Biso   1.000  C
  C96      1.0000 0.88261  0.50014  0.09431  Biso   1.000  C
  C97      1.0000 0.83450  0.49330  0.03169  Biso   1.000  C
  C98      1.0000 0.13920  0.52660  0.95838  Biso   1.000  C
  C99      1.0000 0.91740  0.51790  0.13090  Biso   1.000  C
  C100     1.0000 0.99120  0.50800  0.14500  Biso   1.000  C
  C101     1.0000 0.00340  0.61920  0.71850  Biso   1.000  C
  C102     1.0000 0.01220  0.54480  0.73280  Biso   1.000  C
  C103     1.0000 0.03260  0.52080  0.80680  Biso   1.000  C
  C104     1.0000 0.04440  0.57110  0.86650  Biso   1.000  C
  C105     1.0000 0.03560  0.64550  0.85220  Biso   1.000  C
  C106     1.0000 0.01510  0.66950  0.77820  Biso   1.000  C
  C107     1.0000 0.98770  0.57940  0.68210  Biso   1.000  C
  C108     1.0000 0.96850  0.60570  0.75790  Biso   1.000  C
  C109     1.0000 0.04220  0.44640  0.81840  Biso   1.000  C
  Cu5      1.0000 0.28367  0.70856  0.46098  Biso   1.000  Cu
  Cu6      1.0000 0.20926  0.78361  0.35394  Biso   1.000  Cu
  C110     1.0000 0.77240  0.64200  0.32820  Biso   1.000  C
  C111     1.0000 0.77790  0.37050  0.33340  Biso   1.000  C
  O21      1.0000 0.12740  0.76200  0.42090  Biso   1.000  O
  C112     1.0000 0.13130  0.71950  0.48440  Biso   1.000  C
  O22      1.0000 0.19110  0.69630  0.51290  Biso   1.000  O
  O23      1.0000 0.86610  0.76360  0.42260  Biso   1.000  O
  C113     1.0000 0.86140  0.72760  0.48360  Biso   1.000  C
  O24      1.0000 0.80270  0.70470  0.51810  Biso   1.000  O
  O25      1.0000 0.80230  0.31210  0.30070  Biso   1.000  O
  O26      1.0000 0.79570  0.69980  0.30200  Biso   1.000  O
  O27      1.0000 0.73530  0.63450  0.39340  Biso   1.000  O
  O28      1.0000 0.73920  0.37350  0.39120  Biso   1.000  O
  O29      1.0000 0.18680  0.52300  0.89580  Biso   1.000  O
  O30      1.0000 0.05370  0.68940  0.91750  Biso   1.000  O
  C114     1.0000 0.07340  0.76370  0.91140  Biso   1.000  C
  C115     1.0000 0.26120  0.51740  0.90160  Biso   1.000  C
  C116     1.0000 0.30510  0.45430  0.92500  Biso   1.000  C
  C117     1.0000 0.11000  0.80570  0.84200  Biso   1.000  C
  C118     1.0000 0.00421  0.27447  0.48986  Biso   1.000  C
  H19      1.0000 0.00410  0.24650  0.44300  Biso   1.000  H
  C119     1.0000 0.07008  0.29200  0.52600  Biso   1.000  C
  C120     1.0000 0.07022  0.33290  0.59450  Biso   1.000  C
  H20      1.0000 0.11520  0.34490  0.61920  Biso   1.000  H
  C121     1.0000 0.00450  0.35630  0.62700  Biso   1.000  C
  C122     1.0000 0.93863  0.33880  0.59090  Biso   1.000  C
  H21      1.0000 0.89370  0.35470  0.61310  Biso   1.000  H
  C123     1.0000 0.93848  0.29780  0.52230  Biso   1.000  C
  C124     1.0000 0.05520  0.45340  0.99720  Biso   1.000  C
  C125     1.0000 0.10600  0.45800  0.05670  Biso   1.000  C
  C126     1.0000 0.14524  0.49451  0.18770  Biso   1.000  C
  C127     1.0000 0.16446  0.56045  0.22266  Biso   1.000  C
  H22      1.0000 0.14830  0.60540  0.20060  Biso   1.000  H
  C128     1.0000 0.20730  0.56067  0.28987  Biso   1.000  C
  C129     1.0000 0.23092  0.49494  0.32212  Biso   1.000  C
  H23      1.0000 0.26020  0.49510  0.36800  Biso   1.000  H
  C130     1.0000 0.21170  0.42900  0.28720  Biso   1.000  C
  C131     1.0000 0.16886  0.42878  0.21995  Biso   1.000  C
  H24      1.0000 0.15570  0.38370  0.19610  Biso   1.000  H
  C132     1.0000 0.93500  0.46030  0.94769  Biso   1.000  C
  C133     1.0000 0.98310  0.46720  0.01030  Biso   1.000  C
  C134     1.0000 0.95688  0.48710  0.08360  Biso   1.000  C
  C135     1.0000 0.11739  0.49986  0.09431  Biso   1.000  C
  C136     1.0000 0.16550  0.50670  0.03169  Biso   1.000  C
  C137     1.0000 0.86080  0.47340  0.95838  Biso   1.000  C
  C138     1.0000 0.08260  0.48210  0.13090  Biso   1.000  C
  C139     1.0000 0.00880  0.49200  0.14500  Biso   1.000  C
  C140     1.0000 0.99660  0.38080  0.71850  Biso   1.000  C
  C141     1.0000 0.98780  0.45520  0.73280  Biso   1.000  C
  C142     1.0000 0.96740  0.47920  0.80680  Biso   1.000  C
  C143     1.0000 0.95560  0.42890  0.86650  Biso   1.000  C
  C144     1.0000 0.96440  0.35450  0.85220  Biso   1.000  C
  C145     1.0000 0.98490  0.33050  0.77820  Biso   1.000  C
  C146     1.0000 0.01230  0.42060  0.68210  Biso   1.000  C
  C147     1.0000 0.03150  0.39430  0.75790  Biso   1.000  C
  C148     1.0000 0.95780  0.55360  0.81840  Biso   1.000  C
  Cu7      1.0000 0.71633  0.29144  0.46098  Biso   1.000  Cu
  Cu8      1.0000 0.79074  0.21639  0.35394  Biso   1.000  Cu
  C149     1.0000 0.22760  0.35800  0.32820  Biso   1.000  C
  C150     1.0000 0.22210  0.62950  0.33340  Biso   1.000  C
  O31      1.0000 0.87260  0.23800  0.42090  Biso   1.000  O
  C151     1.0000 0.86870  0.28050  0.48440  Biso   1.000  C
  O32      1.0000 0.80890  0.30370  0.51290  Biso   1.000  O
  O33      1.0000 0.13390  0.23640  0.42260  Biso   1.000  O
  C152     1.0000 0.13860  0.27240  0.48360  Biso   1.000  C
  O34      1.0000 0.19730  0.29530  0.51810  Biso   1.000  O
  O35      1.0000 0.19770  0.68790  0.30070  Biso   1.000  O
  O36      1.0000 0.20430  0.30020  0.30200  Biso   1.000  O
  O37      1.0000 0.26470  0.36550  0.39340  Biso   1.000  O
  O38      1.0000 0.26080  0.62650  0.39120  Biso   1.000  O
  O39      1.0000 0.81320  0.47700  0.89580  Biso   1.000  O
  O40      1.0000 0.94630  0.31060  0.91750  Biso   1.000  O
  C153     1.0000 0.92660  0.23630  0.91140  Biso   1.000  C
  C154     1.0000 0.73880  0.48260  0.90160  Biso   1.000  C
  C155     1.0000 0.69490  0.54570  0.92500  Biso   1.000  C
  C156     1.0000 0.89000  0.19430  0.84200  Biso   1.000  C
  C157     1.0000 0.50000  0.00000  0.67060  Biso   1.000  C
  C158     1.0000 0.00000  0.50000  0.67060  Biso   1.000  C
