data_image0
_cell_length_a       18.2959
_cell_length_b       18.2959
_cell_length_c       17.1099
_cell_angle_alpha    90
_cell_angle_beta     90
_cell_angle_gamma    90

_symmetry_space_group_name_H-M    "P 1"
_symmetry_int_tables_number       1

loop_
  _symmetry_equiv_pos_as_xyz
  'x, y, z'

loop_
  _atom_site_label
  _atom_site_occupancy
  _atom_site_fract_x
  _atom_site_fract_y
  _atom_site_fract_z
  _atom_site_thermal_displace_type
  _atom_site_B_iso_or_equiv
  _atom_site_type_symbol
  C1       1.0000 0.72781  0.99943  0.49086  Biso   1.000  C
  H1       1.0000 0.75610  0.99860  0.44430  Biso   1.000  H
  C2       1.0000 0.70800  0.06580  0.52423  Biso   1.000  C
  C3       1.0000 0.66660  0.06697  0.59236  Biso   1.000  C
  H2       1.0000 0.65310  0.11230  0.61520  Biso   1.000  H
  C4       1.0000 0.64506  0.00177  0.62711  Biso   1.000  C
  C5       1.0000 0.66490  0.93540  0.59374  Biso   1.000  C
  H3       1.0000 0.65010  0.89080  0.61750  Biso   1.000  H
  C6       1.0000 0.70625  0.93423  0.52561  Biso   1.000  C
  C7       1.0000 0.45930  0.94580  0.99310  Biso   1.000  C
  C8       1.0000 0.46590  0.89390  0.05310  Biso   1.000  C
  C9       1.0000 0.49759  0.85607  0.18847  Biso   1.000  C
  C10      1.0000 0.56432  0.83641  0.22111  Biso   1.000  C
  H4       1.0000 0.60860  0.85190  0.19730  Biso   1.000  H
  C11      1.0000 0.56625  0.79412  0.28858  Biso   1.000  C
  C12      1.0000 0.50144  0.77150  0.32340  Biso   1.000  C
  H5       1.0000 0.50280  0.74260  0.36950  Biso   1.000  H
  C13      1.0000 0.43471  0.79117  0.29075  Biso   1.000  C
  C14      1.0000 0.43278  0.83345  0.22329  Biso   1.000  C
  H6       1.0000 0.38720  0.84690  0.20100  Biso   1.000  H
  C15      1.0000 0.53590  0.93410  0.94614  Biso   1.000  C
  C16      1.0000 0.53160  0.98270  0.00854  Biso   1.000  C
  C17      1.0000 0.51370  0.95725  0.08277  Biso   1.000  C
  C18      1.0000 0.50022  0.88321  0.09461  Biso   1.000  C
  C19      1.0000 0.50450  0.83460  0.03221  Biso   1.000  C
  C20      1.0000 0.52240  0.86000  0.95797  Biso   1.000  C
  C21      1.0000 0.49290  0.91210  0.12730  Biso   1.000  C
  C22      1.0000 0.50580  0.01140  0.14460  Biso   1.000  C
  C23      1.0000 0.61890  0.99960  0.71810  Biso   1.000  C
  C24      1.0000 0.54460  0.98990  0.73190  Biso   1.000  C
  C25      1.0000 0.52050  0.96830  0.80530  Biso   1.000  C
  C26      1.0000 0.57050  0.95640  0.86510  Biso   1.000  C
  C27      1.0000 0.64480  0.96600  0.85130  Biso   1.000  C
  C28      1.0000 0.66900  0.98760  0.77790  Biso   1.000  C
  C29      1.0000 0.57840  0.01040  0.68440  Biso   1.000  C
  C30      1.0000 0.60740  0.03140  0.75780  Biso   1.000  C
  C31      1.0000 0.55260  0.03790  0.81710  Biso   1.000  C
  Cu1      1.0000 0.71259  0.71276  0.46057  Biso   1.000  Cu
  Cu2      1.0000 0.78760  0.78744  0.35466  Biso   1.000  Cu
  C32      1.0000 0.36600  0.77590  0.33080  Biso   1.000  C
  C33      1.0000 0.63110  0.77690  0.32810  Biso   1.000  C
  O1       1.0000 0.76280  0.86900  0.42420  Biso   1.000  O
  C34      1.0000 0.72400  0.86150  0.48390  Biso   1.000  C
  O2       1.0000 0.69860  0.80640  0.51230  Biso   1.000  O
  O3       1.0000 0.86780  0.76330  0.42080  Biso   1.000  O
  C35      1.0000 0.72590  0.13690  0.48220  Biso   1.000  C
  O4       1.0000 0.80710  0.69960  0.51160  Biso   1.000  O
  O5       1.0000 0.69400  0.79960  0.29750  Biso   1.000  O
  O6       1.0000 0.30720  0.79870  0.29870  Biso   1.000  O
  O7       1.0000 0.37010  0.73790  0.39160  Biso   1.000  O
  O8       1.0000 0.63060  0.73840  0.39220  Biso   1.000  O
  O9       1.0000 0.48790  0.81520  0.90100  Biso   1.000  O
  O10      1.0000 0.68960  0.94580  0.91480  Biso   1.000  O
  C36      1.0000 0.76730  0.94700  0.90640  Biso   1.000  C
  C37      1.0000 0.49580  0.73930  0.90440  Biso   1.000  C
  C38      1.0000 0.42600  0.71100  0.85900  Biso   1.000  C
  C39      1.0000 0.81430  0.89300  0.87400  Biso   1.000  C
  C40      1.0000 0.27219  0.00057  0.49086  Biso   1.000  C
  H7       1.0000 0.24390  0.00140  0.44430  Biso   1.000  H
  C41      1.0000 0.29200  0.93420  0.52423  Biso   1.000  C
  C42      1.0000 0.33340  0.93303  0.59236  Biso   1.000  C
  H8       1.0000 0.34690  0.88770  0.61520  Biso   1.000  H
  C43      1.0000 0.35494  0.99823  0.62711  Biso   1.000  C
  C44      1.0000 0.33510  0.06460  0.59374  Biso   1.000  C
  H9       1.0000 0.34990  0.10920  0.61750  Biso   1.000  H
  C45      1.0000 0.29375  0.06577  0.52561  Biso   1.000  C
  C46      1.0000 0.54070  0.05420  0.99310  Biso   1.000  C
  C47      1.0000 0.53410  0.10610  0.05310  Biso   1.000  C
  C48      1.0000 0.50241  0.14393  0.18847  Biso   1.000  C
  C49      1.0000 0.43568  0.16359  0.22111  Biso   1.000  C
  H10      1.0000 0.39140  0.14810  0.19730  Biso   1.000  H
  C50      1.0000 0.43375  0.20588  0.28858  Biso   1.000  C
  C51      1.0000 0.49856  0.22850  0.32340  Biso   1.000  C
  H11      1.0000 0.49720  0.25740  0.36950  Biso   1.000  H
  C52      1.0000 0.56529  0.20883  0.29075  Biso   1.000  C
  C53      1.0000 0.56722  0.16655  0.22329  Biso   1.000  C
  H12      1.0000 0.61280  0.15310  0.20100  Biso   1.000  H
  C54      1.0000 0.46410  0.06590  0.94614  Biso   1.000  C
  C55      1.0000 0.46840  0.01730  0.00854  Biso   1.000  C
  C56      1.0000 0.48630  0.04275  0.08277  Biso   1.000  C
  C57      1.0000 0.49978  0.11679  0.09461  Biso   1.000  C
  C58      1.0000 0.49550  0.16540  0.03221  Biso   1.000  C
  C59      1.0000 0.47760  0.14000  0.95797  Biso   1.000  C
  C60      1.0000 0.50710  0.08790  0.12730  Biso   1.000  C
  C61      1.0000 0.49420  0.98860  0.14460  Biso   1.000  C
  C62      1.0000 0.38110  0.00040  0.71810  Biso   1.000  C
  C63      1.0000 0.45540  0.01010  0.73190  Biso   1.000  C
  C64      1.0000 0.47950  0.03170  0.80530  Biso   1.000  C
  C65      1.0000 0.42950  0.04360  0.86510  Biso   1.000  C
  C66      1.0000 0.35520  0.03400  0.85130  Biso   1.000  C
  C67      1.0000 0.33100  0.01240  0.77790  Biso   1.000  C
  C68      1.0000 0.42160  0.98960  0.68440  Biso   1.000  C
  C69      1.0000 0.39260  0.96860  0.75780  Biso   1.000  C
  C70      1.0000 0.44740  0.96210  0.81710  Biso   1.000  C
  Cu3      1.0000 0.28741  0.28724  0.46057  Biso   1.000  Cu
  Cu4      1.0000 0.21240  0.21256  0.35466  Biso   1.000  Cu
  C71      1.0000 0.63400  0.22410  0.33080  Biso   1.000  C
  C72      1.0000 0.36890  0.22310  0.32810  Biso   1.000  C
  O11      1.0000 0.23720  0.13100  0.42420  Biso   1.000  O
  C73      1.0000 0.27600  0.13850  0.48390  Biso   1.000  C
  O12      1.0000 0.30140  0.19360  0.51230  Biso   1.000  O
  O13      1.0000 0.13220  0.23670  0.42080  Biso   1.000  O
  C74      1.0000 0.27410  0.86310  0.48220  Biso   1.000  C
  O14      1.0000 0.19290  0.30040  0.51160  Biso   1.000  O
  O15      1.0000 0.30600  0.20040  0.29750  Biso   1.000  O
  O16      1.0000 0.69280  0.20130  0.29870  Biso   1.000  O
  O17      1.0000 0.62990  0.26210  0.39160  Biso   1.000  O
  O18      1.0000 0.36940  0.26160  0.39220  Biso   1.000  O
  O19      1.0000 0.51210  0.18480  0.90100  Biso   1.000  O
  O20      1.0000 0.31040  0.05420  0.91480  Biso   1.000  O
  C75      1.0000 0.23270  0.05300  0.90640  Biso   1.000  C
  C76      1.0000 0.50420  0.26070  0.90440  Biso   1.000  C
  C77      1.0000 0.57400  0.28900  0.85900  Biso   1.000  C
  C78      1.0000 0.18570  0.10700  0.87400  Biso   1.000  C
  C79      1.0000 0.00057  0.72781  0.49086  Biso   1.000  C
  H13      1.0000 0.00140  0.75610  0.44430  Biso   1.000  H
  C80      1.0000 0.93420  0.70800  0.52423  Biso   1.000  C
  C81      1.0000 0.93303  0.66660  0.59236  Biso   1.000  C
  H14      1.0000 0.88770  0.65310  0.61520  Biso   1.000  H
  C82      1.0000 0.99823  0.64506  0.62711  Biso   1.000  C
  C83      1.0000 0.06460  0.66490  0.59374  Biso   1.000  C
  H15      1.0000 0.10920  0.65010  0.61750  Biso   1.000  H
  C84      1.0000 0.06577  0.70625  0.52561  Biso   1.000  C
  C85      1.0000 0.05420  0.45930  0.99310  Biso   1.000  C
  C86      1.0000 0.10610  0.46590  0.05310  Biso   1.000  C
  C87      1.0000 0.14393  0.49759  0.18847  Biso   1.000  C
  C88      1.0000 0.16359  0.56432  0.22111  Biso   1.000  C
  H16      1.0000 0.14810  0.60860  0.19730  Biso   1.000  H
  C89      1.0000 0.20588  0.56625  0.28858  Biso   1.000  C
  C90      1.0000 0.22850  0.50144  0.32340  Biso   1.000  C
  H17      1.0000 0.25740  0.50280  0.36950  Biso   1.000  H
  C91      1.0000 0.20883  0.43471  0.29075  Biso   1.000  C
  C92      1.0000 0.16655  0.43278  0.22329  Biso   1.000  C
  H18      1.0000 0.15310  0.38720  0.20100  Biso   1.000  H
  C93      1.0000 0.06590  0.53590  0.94614  Biso   1.000  C
  C94      1.0000 0.01730  0.53160  0.00854  Biso   1.000  C
  C95      1.0000 0.04275  0.51370  0.08277  Biso   1.000  C
  C96      1.0000 0.11679  0.50022  0.09461  Biso   1.000  C
  C97      1.0000 0.16540  0.50450  0.03221  Biso   1.000  C
  C98      1.0000 0.14000  0.52240  0.95797  Biso   1.000  C
  C99      1.0000 0.08790  0.49290  0.12730  Biso   1.000  C
  C100     1.0000 0.98860  0.50580  0.14460  Biso   1.000  C
  C101     1.0000 0.00040  0.61890  0.71810  Biso   1.000  C
  C102     1.0000 0.01010  0.54460  0.73190  Biso   1.000  C
  C103     1.0000 0.03170  0.52050  0.80530  Biso   1.000  C
  C104     1.0000 0.04360  0.57050  0.86510  Biso   1.000  C
  C105     1.0000 0.03400  0.64480  0.85130  Biso   1.000  C
  C106     1.0000 0.01240  0.66900  0.77790  Biso   1.000  C
  C107     1.0000 0.98960  0.57840  0.68440  Biso   1.000  C
  C108     1.0000 0.96860  0.60740  0.75780  Biso   1.000  C
  C109     1.0000 0.96210  0.55260  0.81710  Biso   1.000  C
  Cu5      1.0000 0.28724  0.71259  0.46057  Biso   1.000  Cu
  Cu6      1.0000 0.21256  0.78760  0.35466  Biso   1.000  Cu
  C110     1.0000 0.22410  0.36600  0.33080  Biso   1.000  C
  C111     1.0000 0.22310  0.63110  0.32810  Biso   1.000  C
  O21      1.0000 0.13100  0.76280  0.42420  Biso   1.000  O
  C112     1.0000 0.13850  0.72400  0.48390  Biso   1.000  C
  O22      1.0000 0.19360  0.69860  0.51230  Biso   1.000  O
  O23      1.0000 0.23670  0.86780  0.42080  Biso   1.000  O
  C113     1.0000 0.86310  0.72590  0.48220  Biso   1.000  C
  O24      1.0000 0.30040  0.80710  0.51160  Biso   1.000  O
  O25      1.0000 0.20040  0.69400  0.29750  Biso   1.000  O
  O26      1.0000 0.20130  0.30720  0.29870  Biso   1.000  O
  O27      1.0000 0.26210  0.37010  0.39160  Biso   1.000  O
  O28      1.0000 0.26160  0.63060  0.39220  Biso   1.000  O
  O29      1.0000 0.18480  0.48790  0.90100  Biso   1.000  O
  O30      1.0000 0.05420  0.68960  0.91480  Biso   1.000  O
  C114     1.0000 0.05300  0.76730  0.90640  Biso   1.000  C
  C115     1.0000 0.26070  0.49580  0.90440  Biso   1.000  C
  C116     1.0000 0.28900  0.42600  0.85900  Biso   1.000  C
  C117     1.0000 0.10700  0.81430  0.87400  Biso   1.000  C
  C118     1.0000 0.99943  0.27219  0.49086  Biso   1.000  C
  H19      1.0000 0.99860  0.24390  0.44430  Biso   1.000  H
  C119     1.0000 0.06580  0.29200  0.52423  Biso   1.000  C
  C120     1.0000 0.06697  0.33340  0.59236  Biso   1.000  C
  H20      1.0000 0.11230  0.34690  0.61520  Biso   1.000  H
  C121     1.0000 0.00177  0.35494  0.62711  Biso   1.000  C
  C122     1.0000 0.93540  0.33510  0.59374  Biso   1.000  C
  H21      1.0000 0.89080  0.34990  0.61750  Biso   1.000  H
  C123     1.0000 0.93423  0.29375  0.52561  Biso   1.000  C
  C124     1.0000 0.94580  0.54070  0.99310  Biso   1.000  C
  C125     1.0000 0.89390  0.53410  0.05310  Biso   1.000  C
  C126     1.0000 0.85607  0.50241  0.18847  Biso   1.000  C
  C127     1.0000 0.83641  0.43568  0.22111  Biso   1.000  C
  H22      1.0000 0.85190  0.39140  0.19730  Biso   1.000  H
  C128     1.0000 0.79412  0.43375  0.28858  Biso   1.000  C
  C129     1.0000 0.77150  0.49856  0.32340  Biso   1.000  C
  H23      1.0000 0.74260  0.49720  0.36950  Biso   1.000  H
  C130     1.0000 0.79117  0.56529  0.29075  Biso   1.000  C
  C131     1.0000 0.83345  0.56722  0.22329  Biso   1.000  C
  H24      1.0000 0.84690  0.61280  0.20100  Biso   1.000  H
  C132     1.0000 0.93410  0.46410  0.94614  Biso   1.000  C
  C133     1.0000 0.98270  0.46840  0.00854  Biso   1.000  C
  C134     1.0000 0.95725  0.48630  0.08277  Biso   1.000  C
  C135     1.0000 0.88321  0.49978  0.09461  Biso   1.000  C
  C136     1.0000 0.83460  0.49550  0.03221  Biso   1.000  C
  C137     1.0000 0.86000  0.47760  0.95797  Biso   1.000  C
  C138     1.0000 0.91210  0.50710  0.12730  Biso   1.000  C
  C139     1.0000 0.01140  0.49420  0.14460  Biso   1.000  C
  C140     1.0000 0.99960  0.38110  0.71810  Biso   1.000  C
  C141     1.0000 0.98990  0.45540  0.73190  Biso   1.000  C
  C142     1.0000 0.96830  0.47950  0.80530  Biso   1.000  C
  C143     1.0000 0.95640  0.42950  0.86510  Biso   1.000  C
  C144     1.0000 0.96600  0.35520  0.85130  Biso   1.000  C
  C145     1.0000 0.98760  0.33100  0.77790  Biso   1.000  C
  C146     1.0000 0.01040  0.42160  0.68440  Biso   1.000  C
  C147     1.0000 0.03140  0.39260  0.75780  Biso   1.000  C
  C148     1.0000 0.03790  0.44740  0.81710  Biso   1.000  C
  Cu7      1.0000 0.71276  0.28741  0.46057  Biso   1.000  Cu
  Cu8      1.0000 0.78744  0.21240  0.35466  Biso   1.000  Cu
  C149     1.0000 0.77590  0.63400  0.33080  Biso   1.000  C
  C150     1.0000 0.77690  0.36890  0.32810  Biso   1.000  C
  O31      1.0000 0.86900  0.23720  0.42420  Biso   1.000  O
  C151     1.0000 0.86150  0.27600  0.48390  Biso   1.000  C
  O32      1.0000 0.80640  0.30140  0.51230  Biso   1.000  O
  O33      1.0000 0.76330  0.13220  0.42080  Biso   1.000  O
  C152     1.0000 0.13690  0.27410  0.48220  Biso   1.000  C
  O34      1.0000 0.69960  0.19290  0.51160  Biso   1.000  O
  O35      1.0000 0.79960  0.30600  0.29750  Biso   1.000  O
  O36      1.0000 0.79870  0.69280  0.29870  Biso   1.000  O
  O37      1.0000 0.73790  0.62990  0.39160  Biso   1.000  O
  O38      1.0000 0.73840  0.36940  0.39220  Biso   1.000  O
  O39      1.0000 0.81520  0.51210  0.90100  Biso   1.000  O
  O40      1.0000 0.94580  0.31040  0.91480  Biso   1.000  O
  C153     1.0000 0.94700  0.23270  0.90640  Biso   1.000  C
  C154     1.0000 0.73930  0.50420  0.90440  Biso   1.000  C
  C155     1.0000 0.71100  0.57400  0.85900  Biso   1.000  C
  C156     1.0000 0.89300  0.18570  0.87400  Biso   1.000  C
  C157     1.0000 0.50000  0.00000  0.67020  Biso   1.000  C
  C158     1.0000 0.00000  0.50000  0.67020  Biso   1.000  C
