data_image0
_cell_length_a       18.0725
_cell_length_b       18.0725
_cell_length_c       17.1854
_cell_angle_alpha    90
_cell_angle_beta     90
_cell_angle_gamma    90

_symmetry_space_group_name_H-M    "P 1"
_symmetry_int_tables_number       1

loop_
  _symmetry_equiv_pos_as_xyz
  'x, y, z'

loop_
  _atom_site_label
  _atom_site_occupancy
  _atom_site_fract_x
  _atom_site_fract_y
  _atom_site_fract_z
  _atom_site_thermal_displace_type
  _atom_site_B_iso_or_equiv
  _atom_site_type_symbol
  C1       1.0000 0.71650  0.00670  0.49030  Biso   1.000  C
  H1       1.0000 0.74370  0.00740  0.44300  Biso   1.000  H
  C2       1.0000 0.70190  0.07340  0.53000  Biso   1.000  C
  C3       1.0000 0.66140  0.07230  0.60020  Biso   1.000  C
  H2       1.0000 0.65160  0.11730  0.62700  Biso   1.000  H
  C4       1.0000 0.63570  0.00460  0.63070  Biso   1.000  C
  C5       1.0000 0.65030  0.93800  0.59090  Biso   1.000  C
  H3       1.0000 0.63290  0.89240  0.61150  Biso   1.000  H
  C6       1.0000 0.69070  0.93900  0.52080  Biso   1.000  C
  C7       1.0000 0.45460  0.94170  0.99860  Biso   1.000  C
  C8       1.0000 0.45940  0.89100  0.06150  Biso   1.000  C
  C9       1.0000 0.49330  0.84630  0.18190  Biso   1.000  C
  C10      1.0000 0.56070  0.82980  0.21940  Biso   1.000  C
  H4       1.0000 0.60630  0.84470  0.19660  Biso   1.000  H
  C11      1.0000 0.56050  0.79140  0.29070  Biso   1.000  C
  C12      1.0000 0.49300  0.76940  0.32460  Biso   1.000  C
  H5       1.0000 0.49290  0.74340  0.37270  Biso   1.000  H
  C13      1.0000 0.42560  0.78580  0.28710  Biso   1.000  C
  C14      1.0000 0.42580  0.82430  0.21570  Biso   1.000  C
  H6       1.0000 0.38030  0.83540  0.19040  Biso   1.000  H
  O1       1.0000 0.69500  0.95820  0.91690  Biso   1.000  O
  C15      1.0000 0.53570  0.93160  0.94590  Biso   1.000  C
  C16      1.0000 0.53310  0.98150  0.00900  Biso   1.000  C
  C17      1.0000 0.51820  0.95520  0.08460  Biso   1.000  C
  C18      1.0000 0.50580  0.87910  0.09720  Biso   1.000  C
  C19      1.0000 0.50840  0.82930  0.03410  Biso   1.000  C
  C20      1.0000 0.52340  0.85550  0.95850  Biso   1.000  C
  C21      1.0000 0.48100  0.92060  0.13280  Biso   1.000  C
  C22      1.0000 0.51000  0.00380  0.14650  Biso   1.000  C
  C23      1.0000 0.61530  0.99300  0.71970  Biso   1.000  C
  C24      1.0000 0.53920  0.98820  0.73690  Biso   1.000  C
  C25      1.0000 0.51570  0.97380  0.81360  Biso   1.000  C
  C26      1.0000 0.56840  0.96430  0.87330  Biso   1.000  C
  C27      1.0000 0.64460  0.96910  0.85620  Biso   1.000  C
  C28      1.0000 0.66800  0.98350  0.77940  Biso   1.000  C
  C29      1.0000 0.57670  0.00650  0.68100  Biso   1.000  C
  C30      1.0000 0.60510  0.02500  0.75500  Biso   1.000  C
  C31      1.0000 0.56100  0.03800  0.82100  Biso   1.000  C
  Cu1      1.0000 0.70590  0.71670  0.45951  Biso   1.000  Cu
  Cu2      1.0000 0.78270  0.79240  0.35572  Biso   1.000  Cu
  C32      1.0000 0.35660  0.77010  0.33370  Biso   1.000  C
  C33      1.0000 0.63090  0.77260  0.32960  Biso   1.000  C
  O2       1.0000 0.75580  0.86790  0.42660  Biso   1.000  O
  C34      1.0000 0.71240  0.86770  0.48400  Biso   1.000  C
  O3       1.0000 0.68900  0.80560  0.51140  Biso   1.000  O
  O4       1.0000 0.77070  0.13130  0.42980  Biso   1.000  O
  C35      1.0000 0.72910  0.14340  0.49320  Biso   1.000  C
  O5       1.0000 0.71130  0.20660  0.51760  Biso   1.000  O
  O6       1.0000 0.69110  0.80410  0.31140  Biso   1.000  O
  O7       1.0000 0.29820  0.79270  0.30040  Biso   1.000  O
  O8       1.0000 0.36550  0.73960  0.40210  Biso   1.000  O
  O9       1.0000 0.62380  0.73620  0.39690  Biso   1.000  O
  O10      1.0000 0.52700  0.80980  0.89450  Biso   1.000  O
  C36      1.0000 0.28350  0.99330  0.49030  Biso   1.000  C
  H7       1.0000 0.25630  0.99260  0.44300  Biso   1.000  H
  C37      1.0000 0.29810  0.92660  0.53000  Biso   1.000  C
  C38      1.0000 0.33860  0.92770  0.60020  Biso   1.000  C
  H8       1.0000 0.34840  0.88270  0.62700  Biso   1.000  H
  C39      1.0000 0.36430  0.99540  0.63070  Biso   1.000  C
  C40      1.0000 0.34970  0.06200  0.59090  Biso   1.000  C
  H9       1.0000 0.36710  0.10760  0.61150  Biso   1.000  H
  C41      1.0000 0.30930  0.06100  0.52080  Biso   1.000  C
  C42      1.0000 0.54540  0.05830  0.99860  Biso   1.000  C
  C43      1.0000 0.54060  0.10900  0.06150  Biso   1.000  C
  C44      1.0000 0.50670  0.15370  0.18190  Biso   1.000  C
  C45      1.0000 0.43930  0.17020  0.21940  Biso   1.000  C
  H10      1.0000 0.39370  0.15530  0.19660  Biso   1.000  H
  C46      1.0000 0.43950  0.20860  0.29070  Biso   1.000  C
  C47      1.0000 0.50700  0.23060  0.32460  Biso   1.000  C
  H11      1.0000 0.50710  0.25660  0.37270  Biso   1.000  H
  C48      1.0000 0.57440  0.21420  0.28710  Biso   1.000  C
  C49      1.0000 0.57420  0.17570  0.21570  Biso   1.000  C
  H12      1.0000 0.61970  0.16460  0.19040  Biso   1.000  H
  O11      1.0000 0.30500  0.04180  0.91690  Biso   1.000  O
  C50      1.0000 0.46430  0.06840  0.94590  Biso   1.000  C
  C51      1.0000 0.46690  0.01850  0.00900  Biso   1.000  C
  C52      1.0000 0.48180  0.04480  0.08460  Biso   1.000  C
  C53      1.0000 0.49420  0.12090  0.09720  Biso   1.000  C
  C54      1.0000 0.49160  0.17070  0.03410  Biso   1.000  C
  C55      1.0000 0.47660  0.14450  0.95850  Biso   1.000  C
  C56      1.0000 0.51900  0.07940  0.13280  Biso   1.000  C
  C57      1.0000 0.49000  0.99620  0.14650  Biso   1.000  C
  C58      1.0000 0.38470  0.00700  0.71970  Biso   1.000  C
  C59      1.0000 0.46080  0.01180  0.73690  Biso   1.000  C
  C60      1.0000 0.48430  0.02620  0.81360  Biso   1.000  C
  C61      1.0000 0.43160  0.03570  0.87330  Biso   1.000  C
  C62      1.0000 0.35540  0.03090  0.85620  Biso   1.000  C
  C63      1.0000 0.33200  0.01650  0.77940  Biso   1.000  C
  C64      1.0000 0.42330  0.99350  0.68100  Biso   1.000  C
  C65      1.0000 0.39490  0.97500  0.75500  Biso   1.000  C
  C66      1.0000 0.43900  0.96200  0.82100  Biso   1.000  C
  Cu3      1.0000 0.29410  0.28330  0.45951  Biso   1.000  Cu
  Cu4      1.0000 0.21730  0.20760  0.35572  Biso   1.000  Cu
  C67      1.0000 0.64340  0.22990  0.33370  Biso   1.000  C
  C68      1.0000 0.36910  0.22740  0.32960  Biso   1.000  C
  O12      1.0000 0.24420  0.13210  0.42660  Biso   1.000  O
  C69      1.0000 0.28760  0.13230  0.48400  Biso   1.000  C
  O13      1.0000 0.31100  0.19440  0.51140  Biso   1.000  O
  O14      1.0000 0.22930  0.86870  0.42980  Biso   1.000  O
  C70      1.0000 0.27090  0.85660  0.49320  Biso   1.000  C
  O15      1.0000 0.28870  0.79340  0.51760  Biso   1.000  O
  O16      1.0000 0.30890  0.19590  0.31140  Biso   1.000  O
  O17      1.0000 0.70180  0.20730  0.30040  Biso   1.000  O
  O18      1.0000 0.63450  0.26040  0.40210  Biso   1.000  O
  O19      1.0000 0.37620  0.26380  0.39690  Biso   1.000  O
  O20      1.0000 0.47300  0.19020  0.89450  Biso   1.000  O
  C71      1.0000 0.99330  0.71650  0.49030  Biso   1.000  C
  H13      1.0000 0.99260  0.74370  0.44300  Biso   1.000  H
  C72      1.0000 0.92660  0.70190  0.53000  Biso   1.000  C
  C73      1.0000 0.92770  0.66140  0.60020  Biso   1.000  C
  H14      1.0000 0.88270  0.65160  0.62700  Biso   1.000  H
  C74      1.0000 0.99540  0.63570  0.63070  Biso   1.000  C
  C75      1.0000 0.06200  0.65030  0.59090  Biso   1.000  C
  H15      1.0000 0.10760  0.63290  0.61150  Biso   1.000  H
  C76      1.0000 0.06100  0.69070  0.52080  Biso   1.000  C
  C77      1.0000 0.05830  0.45460  0.99860  Biso   1.000  C
  C78      1.0000 0.10900  0.45940  0.06150  Biso   1.000  C
  C79      1.0000 0.15370  0.49330  0.18190  Biso   1.000  C
  C80      1.0000 0.17020  0.56070  0.21940  Biso   1.000  C
  H16      1.0000 0.15530  0.60630  0.19660  Biso   1.000  H
  C81      1.0000 0.20860  0.56050  0.29070  Biso   1.000  C
  C82      1.0000 0.23060  0.49300  0.32460  Biso   1.000  C
  H17      1.0000 0.25660  0.49290  0.37270  Biso   1.000  H
  C83      1.0000 0.21420  0.42560  0.28710  Biso   1.000  C
  C84      1.0000 0.17570  0.42580  0.21570  Biso   1.000  C
  H18      1.0000 0.16460  0.38030  0.19040  Biso   1.000  H
  O21      1.0000 0.04180  0.69500  0.91690  Biso   1.000  O
  C85      1.0000 0.06840  0.53570  0.94590  Biso   1.000  C
  C86      1.0000 0.01850  0.53310  0.00900  Biso   1.000  C
  C87      1.0000 0.04480  0.51820  0.08460  Biso   1.000  C
  C88      1.0000 0.12090  0.50580  0.09720  Biso   1.000  C
  C89      1.0000 0.17070  0.50840  0.03410  Biso   1.000  C
  C90      1.0000 0.14450  0.52340  0.95850  Biso   1.000  C
  C91      1.0000 0.07940  0.48100  0.13280  Biso   1.000  C
  C92      1.0000 0.99620  0.51000  0.14650  Biso   1.000  C
  C93      1.0000 0.00700  0.61530  0.71970  Biso   1.000  C
  C94      1.0000 0.01180  0.53920  0.73690  Biso   1.000  C
  C95      1.0000 0.02620  0.51570  0.81360  Biso   1.000  C
  C96      1.0000 0.03570  0.56840  0.87330  Biso   1.000  C
  C97      1.0000 0.03090  0.64460  0.85620  Biso   1.000  C
  C98      1.0000 0.01650  0.66800  0.77940  Biso   1.000  C
  C99      1.0000 0.99350  0.57670  0.68100  Biso   1.000  C
  C100     1.0000 0.97500  0.60510  0.75500  Biso   1.000  C
  C101     1.0000 0.96200  0.56100  0.82100  Biso   1.000  C
  Cu5      1.0000 0.28330  0.70590  0.45951  Biso   1.000  Cu
  Cu6      1.0000 0.20760  0.78270  0.35572  Biso   1.000  Cu
  C102     1.0000 0.22990  0.35660  0.33370  Biso   1.000  C
  C103     1.0000 0.22740  0.63090  0.32960  Biso   1.000  C
  O22      1.0000 0.13210  0.75580  0.42660  Biso   1.000  O
  C104     1.0000 0.13230  0.71240  0.48400  Biso   1.000  C
  O23      1.0000 0.19440  0.68900  0.51140  Biso   1.000  O
  O24      1.0000 0.86870  0.77070  0.42980  Biso   1.000  O
  C105     1.0000 0.85660  0.72910  0.49320  Biso   1.000  C
  O25      1.0000 0.79340  0.71130  0.51760  Biso   1.000  O
  O26      1.0000 0.19590  0.69110  0.31140  Biso   1.000  O
  O27      1.0000 0.20730  0.29820  0.30040  Biso   1.000  O
  O28      1.0000 0.26040  0.36550  0.40210  Biso   1.000  O
  O29      1.0000 0.26380  0.62380  0.39690  Biso   1.000  O
  O30      1.0000 0.19020  0.52700  0.89450  Biso   1.000  O
  C106     1.0000 0.00670  0.28350  0.49030  Biso   1.000  C
  H19      1.0000 0.00740  0.25630  0.44300  Biso   1.000  H
  C107     1.0000 0.07340  0.29810  0.53000  Biso   1.000  C
  C108     1.0000 0.07230  0.33860  0.60020  Biso   1.000  C
  H20      1.0000 0.11730  0.34840  0.62700  Biso   1.000  H
  C109     1.0000 0.00460  0.36430  0.63070  Biso   1.000  C
  C110     1.0000 0.93800  0.34970  0.59090  Biso   1.000  C
  H21      1.0000 0.89240  0.36710  0.61150  Biso   1.000  H
  C111     1.0000 0.93900  0.30930  0.52080  Biso   1.000  C
  C112     1.0000 0.94170  0.54540  0.99860  Biso   1.000  C
  C113     1.0000 0.89100  0.54060  0.06150  Biso   1.000  C
  C114     1.0000 0.84630  0.50670  0.18190  Biso   1.000  C
  C115     1.0000 0.82980  0.43930  0.21940  Biso   1.000  C
  H22      1.0000 0.84470  0.39370  0.19660  Biso   1.000  H
  C116     1.0000 0.79140  0.43950  0.29070  Biso   1.000  C
  C117     1.0000 0.76940  0.50700  0.32460  Biso   1.000  C
  H23      1.0000 0.74340  0.50710  0.37270  Biso   1.000  H
  C118     1.0000 0.78580  0.57440  0.28710  Biso   1.000  C
  C119     1.0000 0.82430  0.57420  0.21570  Biso   1.000  C
  H24      1.0000 0.83540  0.61970  0.19040  Biso   1.000  H
  O31      1.0000 0.95820  0.30500  0.91690  Biso   1.000  O
  C120     1.0000 0.93160  0.46430  0.94590  Biso   1.000  C
  C121     1.0000 0.98150  0.46690  0.00900  Biso   1.000  C
  C122     1.0000 0.95520  0.48180  0.08460  Biso   1.000  C
  C123     1.0000 0.87910  0.49420  0.09720  Biso   1.000  C
  C124     1.0000 0.82930  0.49160  0.03410  Biso   1.000  C
  C125     1.0000 0.85550  0.47660  0.95850  Biso   1.000  C
  C126     1.0000 0.92060  0.51900  0.13280  Biso   1.000  C
  C127     1.0000 0.00380  0.49000  0.14650  Biso   1.000  C
  C128     1.0000 0.99300  0.38470  0.71970  Biso   1.000  C
  C129     1.0000 0.98820  0.46080  0.73690  Biso   1.000  C
  C130     1.0000 0.97380  0.48430  0.81360  Biso   1.000  C
  C131     1.0000 0.96430  0.43160  0.87330  Biso   1.000  C
  C132     1.0000 0.96910  0.35540  0.85620  Biso   1.000  C
  C133     1.0000 0.98350  0.33200  0.77940  Biso   1.000  C
  C134     1.0000 0.00650  0.42330  0.68100  Biso   1.000  C
  C135     1.0000 0.02500  0.39490  0.75500  Biso   1.000  C
  C136     1.0000 0.03800  0.43900  0.82100  Biso   1.000  C
  Cu7      1.0000 0.71670  0.29410  0.45951  Biso   1.000  Cu
  Cu8      1.0000 0.79240  0.21730  0.35572  Biso   1.000  Cu
  C137     1.0000 0.77010  0.64340  0.33370  Biso   1.000  C
  C138     1.0000 0.77260  0.36910  0.32960  Biso   1.000  C
  O32      1.0000 0.86790  0.24420  0.42660  Biso   1.000  O
  C139     1.0000 0.86770  0.28760  0.48400  Biso   1.000  C
  O33      1.0000 0.80560  0.31100  0.51140  Biso   1.000  O
  O34      1.0000 0.13130  0.22930  0.42980  Biso   1.000  O
  C140     1.0000 0.14340  0.27090  0.49320  Biso   1.000  C
  O35      1.0000 0.20660  0.28870  0.51760  Biso   1.000  O
  O36      1.0000 0.80410  0.30890  0.31140  Biso   1.000  O
  O37      1.0000 0.79270  0.70180  0.30040  Biso   1.000  O
  O38      1.0000 0.73960  0.63450  0.40210  Biso   1.000  O
  O39      1.0000 0.73620  0.37620  0.39690  Biso   1.000  O
  O40      1.0000 0.80980  0.47300  0.89450  Biso   1.000  O
  C141     1.0000 0.50000  0.00000  0.67070  Biso   1.000  C
  C142     1.0000 0.00000  0.50000  0.67070  Biso   1.000  C
