data_image0
_cell_length_a       18.0648
_cell_length_b       18.0648
_cell_length_c       17.1132
_cell_angle_alpha    90
_cell_angle_beta     90
_cell_angle_gamma    90

_symmetry_space_group_name_H-M    "P 1"
_symmetry_int_tables_number       1

loop_
  _symmetry_equiv_pos_as_xyz
  'x, y, z'

loop_
  _atom_site_label
  _atom_site_occupancy
  _atom_site_fract_x
  _atom_site_fract_y
  _atom_site_fract_z
  _atom_site_thermal_displace_type
  _atom_site_B_iso_or_equiv
  _atom_site_type_symbol
  C1       1.0000 0.72680  0.00110  0.48630  Biso   1.000  C
  H1       1.0000 0.75390  0.00140  0.43870  Biso   1.000  H
  C2       1.0000 0.71040  0.06750  0.52370  Biso   1.000  C
  C3       1.0000 0.67070  0.06710  0.59330  Biso   1.000  C
  H2       1.0000 0.65960  0.11240  0.61890  Biso   1.000  H
  C4       1.0000 0.64750  0.00040  0.62550  Biso   1.000  C
  C5       1.0000 0.66380  0.93410  0.58810  Biso   1.000  C
  H3       1.0000 0.64790  0.88850  0.61010  Biso   1.000  H
  C6       1.0000 0.70350  0.93440  0.51850  Biso   1.000  C
  C7       1.0000 0.54500  0.05700  0.98250  Biso   1.000  C
  C8       1.0000 0.53600  0.10610  0.04800  Biso   1.000  C
  C9       1.0000 0.50190  0.14140  0.18060  Biso   1.000  C
  C10      1.0000 0.43520  0.15670  0.21770  Biso   1.000  C
  H4       1.0000 0.39000  0.13950  0.19590  Biso   1.000  H
  C11      1.0000 0.43460  0.19730  0.28670  Biso   1.000  C
  C12      1.0000 0.50070  0.22250  0.31870  Biso   1.000  C
  H5       1.0000 0.50020  0.25030  0.36580  Biso   1.000  H
  C13      1.0000 0.56740  0.20720  0.28160  Biso   1.000  C
  C14      1.0000 0.56800  0.16660  0.21260  Biso   1.000  C
  H6       1.0000 0.61360  0.15620  0.18720  Biso   1.000  H
  C15      1.0000 0.54450  0.93230  0.93870  Biso   1.000  C
  C16      1.0000 0.53460  0.98210  0.99930  Biso   1.000  C
  C17      1.0000 0.51440  0.95770  0.07310  Biso   1.000  C
  C18      1.0000 0.49600  0.11670  0.08650  Biso   1.000  C
  C19      1.0000 0.48600  0.16650  0.02600  Biso   1.000  C
  C20      1.0000 0.53420  0.85800  0.95210  Biso   1.000  C
  C21      1.0000 0.51400  0.07540  0.12000  Biso   1.000  C
  C22      1.0000 0.51300  0.00150  0.13960  Biso   1.000  C
  C23      1.0000 0.62070  0.99750  0.71250  Biso   1.000  C
  C24      1.0000 0.54570  0.98900  0.72780  Biso   1.000  C
  C25      1.0000 0.52200  0.97220  0.80310  Biso   1.000  C
  C26      1.0000 0.57330  0.96400  0.86290  Biso   1.000  C
  C27      1.0000 0.64840  0.97250  0.84750  Biso   1.000  C
  C28      1.0000 0.67210  0.98930  0.77230  Biso   1.000  C
  C29      1.0000 0.57470  0.01480  0.67890  Biso   1.000  C
  C30      1.0000 0.60440  0.04550  0.74740  Biso   1.000  C
  C31      1.0000 0.44850  0.94710  0.80860  Biso   1.000  C
  Cu1      1.0000 0.70930  0.71410  0.45289  Biso   1.000  Cu
  Cu2      1.0000 0.78690  0.78960  0.34758  Biso   1.000  Cu
  C32      1.0000 0.63560  0.22940  0.32480  Biso   1.000  C
  C33      1.0000 0.36450  0.21570  0.32520  Biso   1.000  C
  O1       1.0000 0.76250  0.87400  0.41220  Biso   1.000  O
  C34      1.0000 0.72380  0.86560  0.47610  Biso   1.000  C
  O2       1.0000 0.69700  0.80680  0.50690  Biso   1.000  O
  O3       1.0000 0.86680  0.75940  0.40930  Biso   1.000  O
  C35      1.0000 0.72780  0.13350  0.47910  Biso   1.000  C
  O4       1.0000 0.80530  0.70670  0.50840  Biso   1.000  O
  O5       1.0000 0.30460  0.18770  0.30030  Biso   1.000  O
  O6       1.0000 0.70010  0.20620  0.29480  Biso   1.000  O
  O7       1.0000 0.63180  0.26780  0.38690  Biso   1.000  O
  O8       1.0000 0.36610  0.26670  0.37780  Biso   1.000  O
  O9       1.0000 0.55080  0.81750  0.88700  Biso   1.000  O
  O10      1.0000 0.70050  0.98470  0.91130  Biso   1.000  O
  C36      1.0000 0.81300  0.92200  0.93000  Biso   1.000  C
  C37      1.0000 0.83900  0.87700  0.99000  Biso   1.000  C
  C38      1.0000 0.91200  0.88200  0.01300  Biso   1.000  C
  C39      1.0000 0.96000  0.93000  0.97600  Biso   1.000  C
  C40      1.0000 0.93500  0.97500  0.91600  Biso   1.000  C
  C41      1.0000 0.86100  0.97100  0.89300  Biso   1.000  C
  C42      1.0000 0.73700  0.91800  0.90800  Biso   1.000  C
  C43      1.0000 0.52920  0.69840  0.93230  Biso   1.000  C
  C44      1.0000 0.46600  0.68700  0.88710  Biso   1.000  C
  C45      1.0000 0.41500  0.63300  0.90900  Biso   1.000  C
  C46      1.0000 0.42600  0.59200  0.97700  Biso   1.000  C
  C47      1.0000 0.48900  0.60390  0.02200  Biso   1.000  C
  C48      1.0000 0.54100  0.65700  0.99980  Biso   1.000  C
  C49      1.0000 0.58500  0.75450  0.91000  Biso   1.000  C
  C50      1.0000 0.27320  0.99890  0.48630  Biso   1.000  C
  H7       1.0000 0.24610  0.99860  0.43870  Biso   1.000  H
  C51      1.0000 0.28960  0.93250  0.52370  Biso   1.000  C
  C52      1.0000 0.32930  0.93290  0.59330  Biso   1.000  C
  H8       1.0000 0.34040  0.88760  0.61890  Biso   1.000  H
  C53      1.0000 0.35250  0.99960  0.62550  Biso   1.000  C
  C54      1.0000 0.33620  0.06590  0.58810  Biso   1.000  C
  H9       1.0000 0.35210  0.11150  0.61010  Biso   1.000  H
  C55      1.0000 0.29650  0.06560  0.51850  Biso   1.000  C
  C56      1.0000 0.45500  0.94300  0.98250  Biso   1.000  C
  C57      1.0000 0.46400  0.89390  0.04800  Biso   1.000  C
  C58      1.0000 0.49810  0.85860  0.18060  Biso   1.000  C
  C59      1.0000 0.56480  0.84330  0.21770  Biso   1.000  C
  H10      1.0000 0.61000  0.86050  0.19590  Biso   1.000  H
  C60      1.0000 0.56540  0.80270  0.28670  Biso   1.000  C
  C61      1.0000 0.49930  0.77750  0.31870  Biso   1.000  C
  H11      1.0000 0.49980  0.74970  0.36580  Biso   1.000  H
  C62      1.0000 0.43260  0.79280  0.28160  Biso   1.000  C
  C63      1.0000 0.43200  0.83340  0.21260  Biso   1.000  C
  H12      1.0000 0.38640  0.84380  0.18720  Biso   1.000  H
  C64      1.0000 0.45550  0.06770  0.93870  Biso   1.000  C
  C65      1.0000 0.46540  0.01790  0.99930  Biso   1.000  C
  C66      1.0000 0.48560  0.04230  0.07310  Biso   1.000  C
  C67      1.0000 0.50400  0.88330  0.08650  Biso   1.000  C
  C68      1.0000 0.51400  0.83350  0.02600  Biso   1.000  C
  C69      1.0000 0.46580  0.14200  0.95210  Biso   1.000  C
  C70      1.0000 0.48600  0.92460  0.12000  Biso   1.000  C
  C71      1.0000 0.48700  0.99850  0.13960  Biso   1.000  C
  C72      1.0000 0.37930  0.00250  0.71250  Biso   1.000  C
  C73      1.0000 0.45430  0.01100  0.72780  Biso   1.000  C
  C74      1.0000 0.47800  0.02780  0.80310  Biso   1.000  C
  C75      1.0000 0.42670  0.03600  0.86290  Biso   1.000  C
  C76      1.0000 0.35160  0.02750  0.84750  Biso   1.000  C
  C77      1.0000 0.32790  0.01070  0.77230  Biso   1.000  C
  C78      1.0000 0.42530  0.98520  0.67890  Biso   1.000  C
  C79      1.0000 0.39560  0.95450  0.74740  Biso   1.000  C
  C80      1.0000 0.55150  0.05290  0.80860  Biso   1.000  C
  Cu3      1.0000 0.29070  0.28590  0.45289  Biso   1.000  Cu
  Cu4      1.0000 0.21310  0.21040  0.34758  Biso   1.000  Cu
  C81      1.0000 0.36440  0.77060  0.32480  Biso   1.000  C
  C82      1.0000 0.63550  0.78430  0.32520  Biso   1.000  C
  O11      1.0000 0.23750  0.12600  0.41220  Biso   1.000  O
  C83      1.0000 0.27620  0.13440  0.47610  Biso   1.000  C
  O12      1.0000 0.30300  0.19320  0.50690  Biso   1.000  O
  O13      1.0000 0.13320  0.24060  0.40930  Biso   1.000  O
  C84      1.0000 0.27220  0.86650  0.47910  Biso   1.000  C
  O14      1.0000 0.19470  0.29330  0.50840  Biso   1.000  O
  O15      1.0000 0.69540  0.81230  0.30030  Biso   1.000  O
  O16      1.0000 0.29990  0.79380  0.29480  Biso   1.000  O
  O17      1.0000 0.36820  0.73220  0.38690  Biso   1.000  O
  O18      1.0000 0.63390  0.73330  0.37780  Biso   1.000  O
  O19      1.0000 0.44920  0.18250  0.88700  Biso   1.000  O
  O20      1.0000 0.29950  0.01530  0.91130  Biso   1.000  O
  C85      1.0000 0.18700  0.07800  0.93000  Biso   1.000  C
  C86      1.0000 0.16100  0.12300  0.99000  Biso   1.000  C
  C87      1.0000 0.08800  0.11800  0.01300  Biso   1.000  C
  C88      1.0000 0.04000  0.07000  0.97600  Biso   1.000  C
  C89      1.0000 0.06500  0.02500  0.91600  Biso   1.000  C
  C90      1.0000 0.13900  0.02900  0.89300  Biso   1.000  C
  C91      1.0000 0.26300  0.08200  0.90800  Biso   1.000  C
  C92      1.0000 0.47080  0.30160  0.93230  Biso   1.000  C
  C93      1.0000 0.53400  0.31300  0.88710  Biso   1.000  C
  C94      1.0000 0.58500  0.36700  0.90900  Biso   1.000  C
  C95      1.0000 0.57400  0.40800  0.97700  Biso   1.000  C
  C96      1.0000 0.51100  0.39610  0.02200  Biso   1.000  C
  C97      1.0000 0.45900  0.34300  0.99980  Biso   1.000  C
  C98      1.0000 0.41500  0.24550  0.91000  Biso   1.000  C
  C99      1.0000 0.99890  0.72680  0.48630  Biso   1.000  C
  H13      1.0000 0.99860  0.75390  0.43870  Biso   1.000  H
  C100     1.0000 0.93250  0.71040  0.52370  Biso   1.000  C
  C101     1.0000 0.93290  0.67070  0.59330  Biso   1.000  C
  H14      1.0000 0.88760  0.65960  0.61890  Biso   1.000  H
  C102     1.0000 0.99960  0.64750  0.62550  Biso   1.000  C
  C103     1.0000 0.06590  0.66380  0.58810  Biso   1.000  C
  H15      1.0000 0.11150  0.64790  0.61010  Biso   1.000  H
  C104     1.0000 0.06560  0.70350  0.51850  Biso   1.000  C
  C105     1.0000 0.94300  0.54500  0.98250  Biso   1.000  C
  C106     1.0000 0.89390  0.53600  0.04800  Biso   1.000  C
  C107     1.0000 0.85860  0.50190  0.18060  Biso   1.000  C
  C108     1.0000 0.84330  0.43520  0.21770  Biso   1.000  C
  H16      1.0000 0.86050  0.39000  0.19590  Biso   1.000  H
  C109     1.0000 0.80270  0.43460  0.28670  Biso   1.000  C
  C110     1.0000 0.77750  0.50070  0.31870  Biso   1.000  C
  H17      1.0000 0.74970  0.50020  0.36580  Biso   1.000  H
  C111     1.0000 0.79280  0.56740  0.28160  Biso   1.000  C
  C112     1.0000 0.83340  0.56800  0.21260  Biso   1.000  C
  H18      1.0000 0.84380  0.61360  0.18720  Biso   1.000  H
  C113     1.0000 0.06770  0.54450  0.93870  Biso   1.000  C
  C114     1.0000 0.01790  0.53460  0.99930  Biso   1.000  C
  C115     1.0000 0.04230  0.51440  0.07310  Biso   1.000  C
  C116     1.0000 0.88330  0.49600  0.08650  Biso   1.000  C
  C117     1.0000 0.83350  0.48600  0.02600  Biso   1.000  C
  C118     1.0000 0.14200  0.53420  0.95210  Biso   1.000  C
  C119     1.0000 0.92460  0.51400  0.12000  Biso   1.000  C
  C120     1.0000 0.99850  0.51300  0.13960  Biso   1.000  C
  C121     1.0000 0.00250  0.62070  0.71250  Biso   1.000  C
  C122     1.0000 0.01100  0.54570  0.72780  Biso   1.000  C
  C123     1.0000 0.02780  0.52200  0.80310  Biso   1.000  C
  C124     1.0000 0.03600  0.57330  0.86290  Biso   1.000  C
  C125     1.0000 0.02750  0.64840  0.84750  Biso   1.000  C
  C126     1.0000 0.01070  0.67210  0.77230  Biso   1.000  C
  C127     1.0000 0.98520  0.57470  0.67890  Biso   1.000  C
  C128     1.0000 0.95450  0.60440  0.74740  Biso   1.000  C
  C129     1.0000 0.05290  0.44850  0.80860  Biso   1.000  C
  Cu5      1.0000 0.28590  0.70930  0.45289  Biso   1.000  Cu
  Cu6      1.0000 0.21040  0.78690  0.34758  Biso   1.000  Cu
  C130     1.0000 0.77060  0.63560  0.32480  Biso   1.000  C
  C131     1.0000 0.78430  0.36450  0.32520  Biso   1.000  C
  O21      1.0000 0.12600  0.76250  0.41220  Biso   1.000  O
  C132     1.0000 0.13440  0.72380  0.47610  Biso   1.000  C
  O22      1.0000 0.19320  0.69700  0.50690  Biso   1.000  O
  O23      1.0000 0.24060  0.86680  0.40930  Biso   1.000  O
  C133     1.0000 0.86650  0.72780  0.47910  Biso   1.000  C
  O24      1.0000 0.29330  0.80530  0.50840  Biso   1.000  O
  O25      1.0000 0.81230  0.30460  0.30030  Biso   1.000  O
  O26      1.0000 0.79380  0.70010  0.29480  Biso   1.000  O
  O27      1.0000 0.73220  0.63180  0.38690  Biso   1.000  O
  O28      1.0000 0.73330  0.36610  0.37780  Biso   1.000  O
  O29      1.0000 0.18250  0.55080  0.88700  Biso   1.000  O
  O30      1.0000 0.01530  0.70050  0.91130  Biso   1.000  O
  C134     1.0000 0.07800  0.81300  0.93000  Biso   1.000  C
  C135     1.0000 0.12300  0.83900  0.99000  Biso   1.000  C
  C136     1.0000 0.11800  0.91200  0.01300  Biso   1.000  C
  C137     1.0000 0.07000  0.96000  0.97600  Biso   1.000  C
  C138     1.0000 0.02500  0.93500  0.91600  Biso   1.000  C
  C139     1.0000 0.02900  0.86100  0.89300  Biso   1.000  C
  C140     1.0000 0.08200  0.73700  0.90800  Biso   1.000  C
  C141     1.0000 0.30160  0.52920  0.93230  Biso   1.000  C
  C142     1.0000 0.31300  0.46600  0.88710  Biso   1.000  C
  C143     1.0000 0.36700  0.41500  0.90900  Biso   1.000  C
  C144     1.0000 0.40800  0.42600  0.97700  Biso   1.000  C
  C145     1.0000 0.39610  0.48900  0.02200  Biso   1.000  C
  C146     1.0000 0.34300  0.54100  0.99980  Biso   1.000  C
  C147     1.0000 0.24550  0.58500  0.91000  Biso   1.000  C
  C148     1.0000 0.00110  0.27320  0.48630  Biso   1.000  C
  H19      1.0000 0.00140  0.24610  0.43870  Biso   1.000  H
  C149     1.0000 0.06750  0.28960  0.52370  Biso   1.000  C
  C150     1.0000 0.06710  0.32930  0.59330  Biso   1.000  C
  H20      1.0000 0.11240  0.34040  0.61890  Biso   1.000  H
  C151     1.0000 0.00040  0.35250  0.62550  Biso   1.000  C
  C152     1.0000 0.93410  0.33620  0.58810  Biso   1.000  C
  H21      1.0000 0.88850  0.35210  0.61010  Biso   1.000  H
  C153     1.0000 0.93440  0.29650  0.51850  Biso   1.000  C
  C154     1.0000 0.05700  0.45500  0.98250  Biso   1.000  C
  C155     1.0000 0.10610  0.46400  0.04800  Biso   1.000  C
  C156     1.0000 0.14140  0.49810  0.18060  Biso   1.000  C
  C157     1.0000 0.15670  0.56480  0.21770  Biso   1.000  C
  H22      1.0000 0.13950  0.61000  0.19590  Biso   1.000  H
  C158     1.0000 0.19730  0.56540  0.28670  Biso   1.000  C
  C159     1.0000 0.22250  0.49930  0.31870  Biso   1.000  C
  H23      1.0000 0.25030  0.49980  0.36580  Biso   1.000  H
  C160     1.0000 0.20720  0.43260  0.28160  Biso   1.000  C
  C161     1.0000 0.16660  0.43200  0.21260  Biso   1.000  C
  H24      1.0000 0.15620  0.38640  0.18720  Biso   1.000  H
  C162     1.0000 0.93230  0.45550  0.93870  Biso   1.000  C
  C163     1.0000 0.98210  0.46540  0.99930  Biso   1.000  C
  C164     1.0000 0.95770  0.48560  0.07310  Biso   1.000  C
  C165     1.0000 0.11670  0.50400  0.08650  Biso   1.000  C
  C166     1.0000 0.16650  0.51400  0.02600  Biso   1.000  C
  C167     1.0000 0.85800  0.46580  0.95210  Biso   1.000  C
  C168     1.0000 0.07540  0.48600  0.12000  Biso   1.000  C
  C169     1.0000 0.00150  0.48700  0.13960  Biso   1.000  C
  C170     1.0000 0.99750  0.37930  0.71250  Biso   1.000  C
  C171     1.0000 0.98900  0.45430  0.72780  Biso   1.000  C
  C172     1.0000 0.97220  0.47800  0.80310  Biso   1.000  C
  C173     1.0000 0.96400  0.42670  0.86290  Biso   1.000  C
  C174     1.0000 0.97250  0.35160  0.84750  Biso   1.000  C
  C175     1.0000 0.98930  0.32790  0.77230  Biso   1.000  C
  C176     1.0000 0.01480  0.42530  0.67890  Biso   1.000  C
  C177     1.0000 0.04550  0.39560  0.74740  Biso   1.000  C
  C178     1.0000 0.94710  0.55150  0.80860  Biso   1.000  C
  Cu7      1.0000 0.71410  0.29070  0.45289  Biso   1.000  Cu
  Cu8      1.0000 0.78960  0.21310  0.34758  Biso   1.000  Cu
  C179     1.0000 0.22940  0.36440  0.32480  Biso   1.000  C
  C180     1.0000 0.21570  0.63550  0.32520  Biso   1.000  C
  O31      1.0000 0.87400  0.23750  0.41220  Biso   1.000  O
  C181     1.0000 0.86560  0.27620  0.47610  Biso   1.000  C
  O32      1.0000 0.80680  0.30300  0.50690  Biso   1.000  O
  O33      1.0000 0.75940  0.13320  0.40930  Biso   1.000  O
  C182     1.0000 0.13350  0.27220  0.47910  Biso   1.000  C
  O34      1.0000 0.70670  0.19470  0.50840  Biso   1.000  O
  O35      1.0000 0.18770  0.69540  0.30030  Biso   1.000  O
  O36      1.0000 0.20620  0.29990  0.29480  Biso   1.000  O
  O37      1.0000 0.26780  0.36820  0.38690  Biso   1.000  O
  O38      1.0000 0.26670  0.63390  0.37780  Biso   1.000  O
  O39      1.0000 0.81750  0.44920  0.88700  Biso   1.000  O
  O40      1.0000 0.98470  0.29950  0.91130  Biso   1.000  O
  C183     1.0000 0.92200  0.18700  0.93000  Biso   1.000  C
  C184     1.0000 0.87700  0.16100  0.99000  Biso   1.000  C
  C185     1.0000 0.88200  0.08800  0.01300  Biso   1.000  C
  C186     1.0000 0.93000  0.04000  0.97600  Biso   1.000  C
  C187     1.0000 0.97500  0.06500  0.91600  Biso   1.000  C
  C188     1.0000 0.97100  0.13900  0.89300  Biso   1.000  C
  C189     1.0000 0.91800  0.26300  0.90800  Biso   1.000  C
  C190     1.0000 0.69840  0.47080  0.93230  Biso   1.000  C
  C191     1.0000 0.68700  0.53400  0.88710  Biso   1.000  C
  C192     1.0000 0.63300  0.58500  0.90900  Biso   1.000  C
  C193     1.0000 0.59200  0.57400  0.97700  Biso   1.000  C
  C194     1.0000 0.60390  0.51100  0.02200  Biso   1.000  C
  C195     1.0000 0.65700  0.45900  0.99980  Biso   1.000  C
  C196     1.0000 0.75450  0.41500  0.91000  Biso   1.000  C
  C197     1.0000 0.50000  0.00000  0.66530  Biso   1.000  C
  C198     1.0000 0.00000  0.50000  0.66530  Biso   1.000  C
