data_image0
_cell_length_a       9.9914
_cell_length_b       11.5536
_cell_length_c       18.1034
_cell_angle_alpha    101.148
_cell_angle_beta     103.937
_cell_angle_gamma    91.631

_symmetry_space_group_name_H-M    "P 1"
_symmetry_int_tables_number       1

loop_
  _symmetry_equiv_pos_as_xyz
  'x, y, z'

loop_
  _atom_site_label
  _atom_site_occupancy
  _atom_site_fract_x
  _atom_site_fract_y
  _atom_site_fract_z
  _atom_site_thermal_displace_type
  _atom_site_B_iso_or_equiv
  _atom_site_type_symbol
  N1       1.0000 0.39140  0.03510  0.23900  Biso   1.000  N
  C1       1.0000 0.31480  0.06190  0.29120  Biso   1.000  C
  H1       1.0000 0.22520  0.08160  0.27210  Biso   1.000  H
  C2       1.0000 0.35490  0.06330  0.36930  Biso   1.000  C
  H2       1.0000 0.29380  0.08250  0.40040  Biso   1.000  H
  C3       1.0000 0.48580  0.03590  0.40100  Biso   1.000  C
  C4       1.0000 0.57010  0.00680  0.35110  Biso   1.000  C
  H3       1.0000 0.65950  0.98630  0.36960  Biso   1.000  H
  C5       1.0000 0.52000  0.00870  0.27400  Biso   1.000  C
  H4       1.0000 0.58030  0.99000  0.24230  Biso   1.000  H
  C6       1.0000 0.53540  0.03370  0.48510  Biso   1.000  C
  H5       1.0000 0.61500  0.07900  0.51570  Biso   1.000  H
  N2       1.0000 0.40360  0.00650  0.23600  Biso   1.000  N
  C7       1.0000 0.31300  0.97000  0.27020  Biso   1.000  C
  H6       1.0000 0.22060  0.95320  0.24330  Biso   1.000  H
  C8       1.0000 0.35650  0.95690  0.34630  Biso   1.000  C
  H7       1.0000 0.29300  0.93160  0.37100  Biso   1.000  H
  C9       1.0000 0.49490  0.98160  0.38600  Biso   1.000  C
  C10      1.0000 0.58580  0.02020  0.34660  Biso   1.000  C
  H8       1.0000 0.67910  0.03760  0.37150  Biso   1.000  H
  C11      1.0000 0.53700  0.03270  0.27050  Biso   1.000  C
  H9       1.0000 0.59670  0.05900  0.24390  Biso   1.000  H
  C12      1.0000 0.54550  0.96980  0.46860  Biso   1.000  C
  H10      1.0000 0.62400  0.93080  0.48470  Biso   1.000  H
  Ni1      1.0000 0.32496  0.04946  0.12464  Biso   1.000  Ni
  Ni2      1.0000 0.93992  0.30789  0.28306  Biso   1.000  Ni
  O1       1.0000 0.08170  0.45041  0.31648  Biso   1.000  O
  O2       1.0000 0.11850  0.30105  0.23222  Biso   1.000  O
  O3       1.0000 0.38880  0.22442  0.18097  Biso   1.000  O
  O4       1.0000 0.27310  0.32470  0.09543  Biso   1.000  O
  N3       1.0000 0.24900  0.87320  0.08122  Biso   1.000  N
  N4       1.0000 0.81610  0.37410  0.35287  Biso   1.000  N
  N5       1.0000 0.81960  0.34970  0.18437  Biso   1.000  N
  C13      1.0000 0.28610  0.46890  0.27322  Biso   1.000  C
  C14      1.0000 0.36910  0.42930  0.22294  Biso   1.000  C
  C15      1.0000 0.48980  0.49980  0.22880  Biso   1.000  C
  H11      1.0000 0.54640  0.47410  0.19600  Biso   1.000  H
  C16      1.0000 0.44430  0.64400  0.33140  Biso   1.000  C
  H12      1.0000 0.46860  0.71480  0.36780  Biso   1.000  H
  C17      1.0000 0.32540  0.57640  0.32650  Biso   1.000  C
  H13      1.0000 0.26960  0.60310  0.35970  Biso   1.000  H
  C18      1.0000 0.15620  0.40270  0.27344  Biso   1.000  C
  C19      1.0000 0.33880  0.31670  0.16156  Biso   1.000  C
  C20      1.0000 0.65440  0.68270  0.28550  Biso   1.000  C
  H14      1.0000 0.67040  0.74660  0.33010  Biso   1.000  H
  H15      1.0000 0.64090  0.71420  0.23920  Biso   1.000  H
  H16      1.0000 0.73290  0.63610  0.28980  Biso   1.000  H
  C21      1.0000 0.30720  0.78580  0.11350  Biso   1.000  C
  H17      1.0000 0.39280  0.80300  0.14930  Biso   1.000  H
  C22      1.0000 0.24730  0.67250  0.09650  Biso   1.000  C
  H18      1.0000 0.29120  0.61570  0.12160  Biso   1.000  H
  C23      1.0000 0.12140  0.64230  0.04210  Biso   1.000  C
  C24      1.0000 0.06340  0.73110  0.00580  Biso   1.000  C
  H19      1.0000 0.98080  0.71480  0.96730  Biso   1.000  H
  C25      1.0000 0.12910  0.84350  0.02717  Biso   1.000  C
  H20      1.0000 0.08780  0.90190  0.00270  Biso   1.000  H
  C26      1.0000 0.05960  0.52000  0.02510  Biso   1.000  C
  H21      1.0000 0.10830  0.46680  0.05170  Biso   1.000  H
  C27      1.0000 0.85970  0.46770  0.41110  Biso   1.000  C
  H22      1.0000 0.94820  0.50290  0.41890  Biso   1.000  H
  C28      1.0000 0.78050  0.51470  0.46030  Biso   1.000  C
  H23      1.0000 0.81540  0.58040  0.49990  Biso   1.000  H
  C29      1.0000 0.64870  0.46410  0.45080  Biso   1.000  C
  C30      1.0000 0.60390  0.36660  0.39110  Biso   1.000  C
  H24      1.0000 0.51640  0.32910  0.38290  Biso   1.000  H
  C31      1.0000 0.68840  0.32460  0.34340  Biso   1.000  C
  H25      1.0000 0.65560  0.25940  0.30320  Biso   1.000  H
  C32      1.0000 0.56330  0.51660  0.50260  Biso   1.000  C
  H26      1.0000 0.60470  0.57970  0.54280  Biso   1.000  H
  C33      1.0000 0.82940  0.45600  0.16650  Biso   1.000  C
  H27      1.0000 0.90330  0.50950  0.19560  Biso   1.000  H
  C34      1.0000 0.73530  0.49020  0.10700  Biso   1.000  C
  H28      1.0000 0.74570  0.56550  0.09700  Biso   1.000  H
  C35      1.0000 0.62500  0.41210  0.06233  Biso   1.000  C
  C36      1.0000 0.61940  0.29980  0.07760  Biso   1.000  C
  H29      1.0000 0.54980  0.24320  0.04710  Biso   1.000  H
  C37      1.0000 0.71660  0.27200  0.13790  Biso   1.000  C
  H30      1.0000 0.71110  0.19570  0.14710  Biso   1.000  H
  C38      1.0000 0.51150  0.44550  0.00390  Biso   1.000  C
  H31      1.0000 0.45120  0.38480  0.96980  Biso   1.000  H
  C39      1.0000 0.52710  0.60610  0.28180  Biso   1.000  C
  N6       1.0000 0.60860  0.96490  0.76100  Biso   1.000  N
  C40      1.0000 0.68520  0.93810  0.70880  Biso   1.000  C
  H32      1.0000 0.77480  0.91840  0.72790  Biso   1.000  H
  C41      1.0000 0.64510  0.93670  0.63070  Biso   1.000  C
  H33      1.0000 0.70620  0.91750  0.59960  Biso   1.000  H
  C42      1.0000 0.51420  0.96410  0.59900  Biso   1.000  C
  C43      1.0000 0.42990  0.99320  0.64890  Biso   1.000  C
  H34      1.0000 0.34050  0.01370  0.63040  Biso   1.000  H
  C44      1.0000 0.48000  0.99130  0.72600  Biso   1.000  C
  H35      1.0000 0.41970  0.01000  0.75770  Biso   1.000  H
  C45      1.0000 0.46460  0.96630  0.51490  Biso   1.000  C
  H36      1.0000 0.38500  0.92100  0.48430  Biso   1.000  H
  N7       1.0000 0.59640  0.99350  0.76400  Biso   1.000  N
  C46      1.0000 0.68700  0.03000  0.72980  Biso   1.000  C
  H37      1.0000 0.77940  0.04680  0.75670  Biso   1.000  H
  C47      1.0000 0.64350  0.04310  0.65370  Biso   1.000  C
  H38      1.0000 0.70700  0.06840  0.62900  Biso   1.000  H
  C48      1.0000 0.50510  0.01840  0.61400  Biso   1.000  C
  C49      1.0000 0.41420  0.97980  0.65340  Biso   1.000  C
  H39      1.0000 0.32090  0.96240  0.62850  Biso   1.000  H
  C50      1.0000 0.46300  0.96730  0.72950  Biso   1.000  C
  H40      1.0000 0.40330  0.94100  0.75610  Biso   1.000  H
  C51      1.0000 0.45450  0.03020  0.53140  Biso   1.000  C
  H41      1.0000 0.37600  0.06920  0.51530  Biso   1.000  H
  Ni3      1.0000 0.67504  0.95054  0.87536  Biso   1.000  Ni
  Ni4      1.0000 0.06008  0.69211  0.71694  Biso   1.000  Ni
  O5       1.0000 0.91830  0.54959  0.68352  Biso   1.000  O
  O6       1.0000 0.88150  0.69895  0.76778  Biso   1.000  O
  O7       1.0000 0.61120  0.77558  0.81903  Biso   1.000  O
  O8       1.0000 0.72690  0.67530  0.90457  Biso   1.000  O
  N8       1.0000 0.75100  0.12680  0.91878  Biso   1.000  N
  N9       1.0000 0.18390  0.62590  0.64713  Biso   1.000  N
  N10      1.0000 0.18040  0.65030  0.81563  Biso   1.000  N
  C52      1.0000 0.71390  0.53110  0.72678  Biso   1.000  C
  C53      1.0000 0.63090  0.57070  0.77706  Biso   1.000  C
  C54      1.0000 0.51020  0.50020  0.77120  Biso   1.000  C
  H42      1.0000 0.45360  0.52590  0.80400  Biso   1.000  H
  C55      1.0000 0.55570  0.35600  0.66860  Biso   1.000  C
  H43      1.0000 0.53140  0.28520  0.63220  Biso   1.000  H
  C56      1.0000 0.67460  0.42360  0.67350  Biso   1.000  C
  H44      1.0000 0.73040  0.39690  0.64030  Biso   1.000  H
  C57      1.0000 0.84380  0.59730  0.72656  Biso   1.000  C
  C58      1.0000 0.66120  0.68330  0.83844  Biso   1.000  C
  C59      1.0000 0.34560  0.31730  0.71450  Biso   1.000  C
  H45      1.0000 0.32960  0.25340  0.66990  Biso   1.000  H
  H46      1.0000 0.35910  0.28580  0.76080  Biso   1.000  H
  H47      1.0000 0.26710  0.36390  0.71020  Biso   1.000  H
  C60      1.0000 0.69280  0.21420  0.88650  Biso   1.000  C
  H48      1.0000 0.60720  0.19700  0.85070  Biso   1.000  H
  C61      1.0000 0.75270  0.32750  0.90350  Biso   1.000  C
  H49      1.0000 0.70880  0.38430  0.87840  Biso   1.000  H
  C62      1.0000 0.87860  0.35770  0.95790  Biso   1.000  C
  C63      1.0000 0.93660  0.26890  0.99420  Biso   1.000  C
  H50      1.0000 0.01920  0.28520  0.03270  Biso   1.000  H
  C64      1.0000 0.87090  0.15650  0.97283  Biso   1.000  C
  H51      1.0000 0.91220  0.09810  0.99730  Biso   1.000  H
  C65      1.0000 0.94040  0.48000  0.97490  Biso   1.000  C
  H52      1.0000 0.89170  0.53320  0.94830  Biso   1.000  H
  C66      1.0000 0.14030  0.53230  0.58890  Biso   1.000  C
  H53      1.0000 0.05180  0.49710  0.58110  Biso   1.000  H
  C67      1.0000 0.21950  0.48530  0.53970  Biso   1.000  C
  H54      1.0000 0.18460  0.41960  0.50010  Biso   1.000  H
  C68      1.0000 0.35130  0.53590  0.54920  Biso   1.000  C
  C69      1.0000 0.39610  0.63340  0.60890  Biso   1.000  C
  H55      1.0000 0.48360  0.67090  0.61710  Biso   1.000  H
  C70      1.0000 0.31160  0.67540  0.65660  Biso   1.000  C
  H56      1.0000 0.34440  0.74060  0.69680  Biso   1.000  H
  C71      1.0000 0.43670  0.48340  0.49740  Biso   1.000  C
  H57      1.0000 0.39530  0.42030  0.45720  Biso   1.000  H
  C72      1.0000 0.17060  0.54400  0.83350  Biso   1.000  C
  H58      1.0000 0.09670  0.49050  0.80440  Biso   1.000  H
  C73      1.0000 0.26470  0.50980  0.89300  Biso   1.000  C
  H59      1.0000 0.25430  0.43450  0.90300  Biso   1.000  H
  C74      1.0000 0.37500  0.58790  0.93767  Biso   1.000  C
  C75      1.0000 0.38060  0.70020  0.92240  Biso   1.000  C
  H60      1.0000 0.45020  0.75680  0.95290  Biso   1.000  H
  C76      1.0000 0.28340  0.72800  0.86210  Biso   1.000  C
  H61      1.0000 0.28890  0.80430  0.85290  Biso   1.000  H
  C77      1.0000 0.48850  0.55450  0.99610  Biso   1.000  C
  H62      1.0000 0.54880  0.61520  0.03020  Biso   1.000  H
  C78      1.0000 0.47290  0.39390  0.71820  Biso   1.000  C
