data_image0
_cell_length_a       9.3139
_cell_length_b       9.3139
_cell_length_c       13.3133
_cell_angle_alpha    90
_cell_angle_beta     90
_cell_angle_gamma    120

_symmetry_space_group_name_H-M    "P 1"
_symmetry_int_tables_number       1

loop_
  _symmetry_equiv_pos_as_xyz
  'x, y, z'

loop_
  _atom_site_label
  _atom_site_occupancy
  _atom_site_fract_x
  _atom_site_fract_y
  _atom_site_fract_z
  _atom_site_thermal_displace_type
  _atom_site_B_iso_or_equiv
  _atom_site_type_symbol
  N1       1.0000 0.18610  0.85390  0.85080  Biso   1.000  N
  C1       1.0000 0.27630  0.99540  0.80060  Biso   1.000  C
  H1       1.0000 0.33640  0.09350  0.83650  Biso   1.000  H
  C2       1.0000 0.28300  0.00040  0.69690  Biso   1.000  C
  H2       1.0000 0.34930  0.10070  0.66430  Biso   1.000  H
  C3       1.0000 0.19280  0.85870  0.64130  Biso   1.000  C
  C4       1.0000 0.09480  0.71060  0.69580  Biso   1.000  C
  H3       1.0000 0.02900  0.61190  0.66160  Biso   1.000  H
  C5       1.0000 0.09650  0.71190  0.79800  Biso   1.000  C
  H4       1.0000 0.03450  0.61270  0.83250  Biso   1.000  H
  C6       1.0000 0.25410  0.86000  0.53330  Biso   1.000  C
  H5       1.0000 0.35020  0.86040  0.51360  Biso   1.000  H
  C7       1.0000 0.12320  0.86100  0.53330  Biso   1.000  C
  H6       1.0000 0.02720  0.86220  0.48440  Biso   1.000  H
  N2       1.0000 0.14610  0.33220  0.85080  Biso   1.000  N
  C8       1.0000 0.00460  0.28090  0.80060  Biso   1.000  C
  H7       1.0000 0.90650  0.24290  0.83650  Biso   1.000  H
  C9       1.0000 0.99960  0.28260  0.69690  Biso   1.000  C
  H8       1.0000 0.89930  0.24860  0.66430  Biso   1.000  H
  C10      1.0000 0.14130  0.33410  0.64130  Biso   1.000  C
  C11      1.0000 0.28940  0.38420  0.69580  Biso   1.000  C
  H9       1.0000 0.38810  0.41710  0.66160  Biso   1.000  H
  C12      1.0000 0.28810  0.38460  0.79800  Biso   1.000  C
  H10      1.0000 0.38730  0.42180  0.83250  Biso   1.000  H
  C13      1.0000 0.14000  0.39410  0.53330  Biso   1.000  C
  H11      1.0000 0.13960  0.48980  0.51360  Biso   1.000  H
  C14      1.0000 0.13900  0.26220  0.53330  Biso   1.000  C
  H12      1.0000 0.13780  0.16500  0.48440  Biso   1.000  H
  N3       1.0000 0.66780  0.81390  0.85080  Biso   1.000  N
  C15      1.0000 0.71910  0.72370  0.80060  Biso   1.000  C
  H13      1.0000 0.75710  0.66360  0.83650  Biso   1.000  H
  C16      1.0000 0.71740  0.71700  0.69690  Biso   1.000  C
  H14      1.0000 0.75140  0.65070  0.66430  Biso   1.000  H
  C17      1.0000 0.66590  0.80720  0.64130  Biso   1.000  C
  C18      1.0000 0.61580  0.90520  0.69580  Biso   1.000  C
  H15      1.0000 0.58290  0.97100  0.66160  Biso   1.000  H
  C19      1.0000 0.61540  0.90350  0.79800  Biso   1.000  C
  H16      1.0000 0.57820  0.96550  0.83250  Biso   1.000  H
  C20      1.0000 0.60590  0.74590  0.53330  Biso   1.000  C
  H17      1.0000 0.51020  0.64980  0.51360  Biso   1.000  H
  C21      1.0000 0.73780  0.87680  0.53330  Biso   1.000  C
  H18      1.0000 0.83500  0.97280  0.48440  Biso   1.000  H
  N4       1.0000 0.18610  0.85390  0.14920  Biso   1.000  N
  C22      1.0000 0.27630  0.99540  0.19940  Biso   1.000  C
  H19      1.0000 0.33640  0.09350  0.16350  Biso   1.000  H
  C23      1.0000 0.28300  0.00040  0.30310  Biso   1.000  C
  H20      1.0000 0.34930  0.10070  0.33570  Biso   1.000  H
  C24      1.0000 0.19280  0.85870  0.35870  Biso   1.000  C
  C25      1.0000 0.09480  0.71060  0.30420  Biso   1.000  C
  H21      1.0000 0.02900  0.61190  0.33840  Biso   1.000  H
  C26      1.0000 0.09650  0.71190  0.20200  Biso   1.000  C
  H22      1.0000 0.03450  0.61270  0.16750  Biso   1.000  H
  C27      1.0000 0.25410  0.86000  0.46670  Biso   1.000  C
  H23      1.0000 0.35020  0.86040  0.48640  Biso   1.000  H
  C28      1.0000 0.12320  0.86100  0.46670  Biso   1.000  C
  H24      1.0000 0.02720  0.86220  0.51560  Biso   1.000  H
  N5       1.0000 0.14610  0.33220  0.14920  Biso   1.000  N
  C29      1.0000 0.00460  0.28090  0.19940  Biso   1.000  C
  H25      1.0000 0.90650  0.24290  0.16350  Biso   1.000  H
  C30      1.0000 0.99960  0.28260  0.30310  Biso   1.000  C
  H26      1.0000 0.89930  0.24860  0.33570  Biso   1.000  H
  C31      1.0000 0.14130  0.33410  0.35870  Biso   1.000  C
  C32      1.0000 0.28940  0.38420  0.30420  Biso   1.000  C
  H27      1.0000 0.38810  0.41710  0.33840  Biso   1.000  H
  C33      1.0000 0.28810  0.38460  0.20200  Biso   1.000  C
  H28      1.0000 0.38730  0.42180  0.16750  Biso   1.000  H
  C34      1.0000 0.14000  0.39410  0.46670  Biso   1.000  C
  H29      1.0000 0.13960  0.48980  0.48640  Biso   1.000  H
  C35      1.0000 0.13900  0.26220  0.46670  Biso   1.000  C
  H30      1.0000 0.13780  0.16500  0.51560  Biso   1.000  H
  N6       1.0000 0.66780  0.81390  0.14920  Biso   1.000  N
  C36      1.0000 0.71910  0.72370  0.19940  Biso   1.000  C
  H31      1.0000 0.75710  0.66360  0.16350  Biso   1.000  H
  C37      1.0000 0.71740  0.71700  0.30310  Biso   1.000  C
  H32      1.0000 0.75140  0.65070  0.33570  Biso   1.000  H
  C38      1.0000 0.66590  0.80720  0.35870  Biso   1.000  C
  C39      1.0000 0.61580  0.90520  0.30420  Biso   1.000  C
  H33      1.0000 0.58290  0.97100  0.33840  Biso   1.000  H
  C40      1.0000 0.61540  0.90350  0.20200  Biso   1.000  C
  H34      1.0000 0.57820  0.96550  0.16750  Biso   1.000  H
  C41      1.0000 0.60590  0.74590  0.46670  Biso   1.000  C
  H35      1.0000 0.51020  0.64980  0.48640  Biso   1.000  H
  C42      1.0000 0.73780  0.87680  0.46670  Biso   1.000  C
  H36      1.0000 0.83500  0.97280  0.51560  Biso   1.000  H
  Cu1      1.0000 0.18143  0.85091  0.00000  Biso   1.000  Cu
  O1       1.0000 0.18540  0.64360  0.00000  Biso   1.000  O
  O2       1.0000 0.89110  0.84330  0.00000  Biso   1.000  O
  Cu2      1.0000 0.14909  0.33052  0.00000  Biso   1.000  Cu
  O3       1.0000 0.35640  0.54180  0.00000  Biso   1.000  O
  O4       1.0000 0.15670  0.04780  0.00000  Biso   1.000  O
  Cu3      1.0000 0.66948  0.81857  0.00000  Biso   1.000  Cu
  O5       1.0000 0.45820  0.81460  0.00000  Biso   1.000  O
  O6       1.0000 0.95220  0.10890  0.00000  Biso   1.000  O
  C43      1.0000 0.33333  0.66667  0.00000  Biso   1.000  C
  C44      1.0000 0.00000  0.00000  0.00000  Biso   1.000  C
