data_image0
_cell_length_a       16.7936
_cell_length_b       9.5858
_cell_length_c       22.5827
_cell_angle_alpha    90
_cell_angle_beta     104.216
_cell_angle_gamma    90

_symmetry_space_group_name_H-M    "P 1"
_symmetry_int_tables_number       1

loop_
  _symmetry_equiv_pos_as_xyz
  'x, y, z'

loop_
  _atom_site_label
  _atom_site_occupancy
  _atom_site_fract_x
  _atom_site_fract_y
  _atom_site_fract_z
  _atom_site_thermal_displace_type
  _atom_site_B_iso_or_equiv
  _atom_site_type_symbol
  S1       1.0000 0.86993  0.47847  0.01512  Biso   1.000  S
  S2       1.0000 0.65781  0.03346  0.10686  Biso   1.000  S
  S3       1.0000 0.87609  0.99663  0.99853  Biso   1.000  S
  S4       1.0000 0.79962  0.29525  0.28044  Biso   1.000  S
  S5       1.0000 0.48903  0.53579  0.24093  Biso   1.000  S
  S6       1.0000 0.67868  0.51341  0.11587  Biso   1.000  S
  S7       1.0000 0.58764  0.74917  0.92797  Biso   1.000  S
  S8       1.0000 0.91001  0.83357  0.17018  Biso   1.000  S
  O1       1.0000 0.83440  0.37980  0.04940  Biso   1.000  O
  O2       1.0000 0.81470  0.59820  0.00157  Biso   1.000  O
  O3       1.0000 0.95060  0.52140  0.05003  Biso   1.000  O
  O4       1.0000 0.87470  0.41530  0.95676  Biso   1.000  O
  O5       1.0000 0.69970  0.10510  0.16393  Biso   1.000  O
  O6       1.0000 0.65920  0.88180  0.11597  Biso   1.000  O
  O7       1.0000 0.70770  0.06240  0.06174  Biso   1.000  O
  O8       1.0000 0.57520  0.08920  0.08691  Biso   1.000  O
  O9       1.0000 0.79700  0.92350  0.98333  Biso   1.000  O
  O10      1.0000 0.88980  0.06460  0.94528  Biso   1.000  O
  O11      1.0000 0.93560  0.92200  0.03810  Biso   1.000  O
  O12      1.0000 0.93900  0.87190  0.00310  Biso   1.000  O
  O13      1.0000 0.89440  0.06440  0.05560  Biso   1.000  O
  O14      1.0000 0.85830  0.12840  0.03240  Biso   1.000  O
  O15      1.0000 0.82900  0.24520  0.34375  Biso   1.000  O
  O16      1.0000 0.83660  0.20500  0.24077  Biso   1.000  O
  O17      1.0000 0.82580  0.43940  0.27470  Biso   1.000  O
  O18      1.0000 0.71020  0.28550  0.26274  Biso   1.000  O
  O19      1.0000 0.45150  0.46230  0.18415  Biso   1.000  O
  O20      1.0000 0.55880  0.01890  0.21305  Biso   1.000  O
  O21      1.0000 0.57160  0.47700  0.26290  Biso   1.000  O
  O22      1.0000 0.50910  0.18930  0.26952  Biso   1.000  O
  O23      1.0000 0.70300  0.36650  0.11480  Biso   1.000  O
  O24      1.0000 0.61880  0.51820  0.15279  Biso   1.000  O
  O25      1.0000 0.64370  0.56430  0.05375  Biso   1.000  O
  O26      1.0000 0.74930  0.60400  0.14145  Biso   1.000  O
  O27      1.0000 0.60270  0.84480  0.98068  Biso   1.000  O
  O28      1.0000 0.51660  0.65880  0.92488  Biso   1.000  O
  O29      1.0000 0.57140  0.82780  0.87003  Biso   1.000  O
  O30      1.0000 0.66440  0.66700  0.93614  Biso   1.000  O
  O31      1.0000 0.85050  0.94860  0.15540  Biso   1.000  O
  O32      1.0000 0.90480  0.76800  0.22620  Biso   1.000  O
  O33      1.0000 0.88850  0.73370  0.11813  Biso   1.000  O
  O34      1.0000 0.99420  0.88100  0.17192  Biso   1.000  O
  La1      1.0000 0.57434  0.27607  0.18145  Biso   1.000  La
  La2      1.0000 0.73871  0.77010  0.04769  Biso   1.000  La
  La3      1.0000 0.03128  0.73901  0.08382  Biso   1.000  La
  La4      1.0000 0.82877  0.20478  0.12947  Biso   1.000  La
  S9       1.0000 0.13007  0.97847  0.48488  Biso   1.000  S
  S10      1.0000 0.34219  0.53346  0.39314  Biso   1.000  S
  S11      1.0000 0.12391  0.49663  0.50147  Biso   1.000  S
  S12      1.0000 0.20038  0.79525  0.21956  Biso   1.000  S
  S13      1.0000 0.51097  0.03579  0.25907  Biso   1.000  S
  S14      1.0000 0.32132  0.01341  0.38413  Biso   1.000  S
  S15      1.0000 0.41236  0.24917  0.57203  Biso   1.000  S
  S16      1.0000 0.08999  0.33357  0.32982  Biso   1.000  S
  O35      1.0000 0.16560  0.87980  0.45060  Biso   1.000  O
  O36      1.0000 0.18530  0.09820  0.49843  Biso   1.000  O
  O37      1.0000 0.04940  0.02140  0.44997  Biso   1.000  O
  O38      1.0000 0.12530  0.91530  0.54324  Biso   1.000  O
  O39      1.0000 0.30030  0.60510  0.33607  Biso   1.000  O
  O40      1.0000 0.34080  0.38180  0.38403  Biso   1.000  O
  O41      1.0000 0.29230  0.56240  0.43826  Biso   1.000  O
  O42      1.0000 0.42480  0.58920  0.41309  Biso   1.000  O
  O43      1.0000 0.20300  0.42350  0.51667  Biso   1.000  O
  O44      1.0000 0.11020  0.56460  0.55472  Biso   1.000  O
  O45      1.0000 0.06440  0.42200  0.46190  Biso   1.000  O
  O46      1.0000 0.06100  0.37190  0.49690  Biso   1.000  O
  O47      1.0000 0.10560  0.56440  0.44440  Biso   1.000  O
  O48      1.0000 0.14170  0.62840  0.46760  Biso   1.000  O
  O49      1.0000 0.17100  0.74520  0.15625  Biso   1.000  O
  O50      1.0000 0.16340  0.70500  0.25923  Biso   1.000  O
  O51      1.0000 0.17420  0.93940  0.22530  Biso   1.000  O
  O52      1.0000 0.28980  0.78550  0.23726  Biso   1.000  O
  O53      1.0000 0.54850  0.96230  0.31585  Biso   1.000  O
  O54      1.0000 0.44120  0.51890  0.28695  Biso   1.000  O
  O55      1.0000 0.42840  0.97700  0.23710  Biso   1.000  O
  O56      1.0000 0.49090  0.68930  0.23048  Biso   1.000  O
  O57      1.0000 0.29700  0.86650  0.38520  Biso   1.000  O
  O58      1.0000 0.38120  0.01820  0.34721  Biso   1.000  O
  O59      1.0000 0.35630  0.06430  0.44625  Biso   1.000  O
  O60      1.0000 0.25070  0.10400  0.35855  Biso   1.000  O
  O61      1.0000 0.39730  0.34480  0.51932  Biso   1.000  O
  O62      1.0000 0.48340  0.15880  0.57512  Biso   1.000  O
  O63      1.0000 0.42860  0.32780  0.62997  Biso   1.000  O
  O64      1.0000 0.33560  0.16700  0.56386  Biso   1.000  O
  O65      1.0000 0.14950  0.44860  0.34460  Biso   1.000  O
  O66      1.0000 0.09520  0.26800  0.27380  Biso   1.000  O
  O67      1.0000 0.11150  0.23370  0.38187  Biso   1.000  O
  O68      1.0000 0.00580  0.38100  0.32808  Biso   1.000  O
  La5      1.0000 0.42566  0.77607  0.31855  Biso   1.000  La
  La6      1.0000 0.26129  0.27010  0.45231  Biso   1.000  La
  La7      1.0000 0.96872  0.23901  0.41618  Biso   1.000  La
  La8      1.0000 0.17123  0.70478  0.37053  Biso   1.000  La
  S17      1.0000 0.13007  0.52153  0.98488  Biso   1.000  S
  S18      1.0000 0.34219  0.96654  0.89314  Biso   1.000  S
  S19      1.0000 0.12391  0.00337  0.00147  Biso   1.000  S
  S20      1.0000 0.20038  0.70475  0.71956  Biso   1.000  S
  S21      1.0000 0.51097  0.46421  0.75907  Biso   1.000  S
  S22      1.0000 0.32132  0.48659  0.88413  Biso   1.000  S
  S23      1.0000 0.41236  0.25083  0.07203  Biso   1.000  S
  S24      1.0000 0.08999  0.16643  0.82982  Biso   1.000  S
  O69      1.0000 0.16560  0.62020  0.95060  Biso   1.000  O
  O70      1.0000 0.18530  0.40180  0.99843  Biso   1.000  O
  O71      1.0000 0.04940  0.47860  0.94997  Biso   1.000  O
  O72      1.0000 0.12530  0.58470  0.04324  Biso   1.000  O
  O73      1.0000 0.30030  0.89490  0.83607  Biso   1.000  O
  O74      1.0000 0.34080  0.11820  0.88403  Biso   1.000  O
  O75      1.0000 0.29230  0.93760  0.93826  Biso   1.000  O
  O76      1.0000 0.42480  0.91080  0.91309  Biso   1.000  O
  O77      1.0000 0.20300  0.07650  0.01667  Biso   1.000  O
  O78      1.0000 0.11020  0.93540  0.05472  Biso   1.000  O
  O79      1.0000 0.06440  0.07800  0.96190  Biso   1.000  O
  O80      1.0000 0.06100  0.12810  0.99690  Biso   1.000  O
  O81      1.0000 0.10560  0.93560  0.94440  Biso   1.000  O
  O82      1.0000 0.14170  0.87160  0.96760  Biso   1.000  O
  O83      1.0000 0.17100  0.75480  0.65625  Biso   1.000  O
  O84      1.0000 0.16340  0.79500  0.75923  Biso   1.000  O
  O85      1.0000 0.17420  0.56060  0.72530  Biso   1.000  O
  O86      1.0000 0.28980  0.71450  0.73726  Biso   1.000  O
  O87      1.0000 0.54850  0.53770  0.81585  Biso   1.000  O
  O88      1.0000 0.44120  0.98110  0.78695  Biso   1.000  O
  O89      1.0000 0.42840  0.52300  0.73710  Biso   1.000  O
  O90      1.0000 0.49090  0.81070  0.73048  Biso   1.000  O
  O91      1.0000 0.29700  0.63350  0.88520  Biso   1.000  O
  O92      1.0000 0.38120  0.48180  0.84721  Biso   1.000  O
  O93      1.0000 0.35630  0.43570  0.94625  Biso   1.000  O
  O94      1.0000 0.25070  0.39600  0.85855  Biso   1.000  O
  O95      1.0000 0.39730  0.15520  0.01932  Biso   1.000  O
  O96      1.0000 0.48340  0.34120  0.07512  Biso   1.000  O
  O97      1.0000 0.42860  0.17220  0.12997  Biso   1.000  O
  O98      1.0000 0.33560  0.33300  0.06386  Biso   1.000  O
  O99      1.0000 0.14950  0.05140  0.84460  Biso   1.000  O
  O100     1.0000 0.09520  0.23200  0.77380  Biso   1.000  O
  O101     1.0000 0.11150  0.26630  0.88187  Biso   1.000  O
  O102     1.0000 0.00580  0.11900  0.82808  Biso   1.000  O
  La9      1.0000 0.42566  0.72393  0.81855  Biso   1.000  La
  La10     1.0000 0.26129  0.22990  0.95231  Biso   1.000  La
  La11     1.0000 0.96872  0.26099  0.91618  Biso   1.000  La
  La12     1.0000 0.17123  0.79522  0.87053  Biso   1.000  La
  S25      1.0000 0.86993  0.02153  0.51512  Biso   1.000  S
  S26      1.0000 0.65781  0.46654  0.60686  Biso   1.000  S
  S27      1.0000 0.87609  0.50337  0.49853  Biso   1.000  S
  S28      1.0000 0.79962  0.20475  0.78044  Biso   1.000  S
  S29      1.0000 0.48903  0.96421  0.74093  Biso   1.000  S
  S30      1.0000 0.67868  0.98659  0.61587  Biso   1.000  S
  S31      1.0000 0.58764  0.75083  0.42797  Biso   1.000  S
  S32      1.0000 0.91001  0.66643  0.67018  Biso   1.000  S
  O103     1.0000 0.83440  0.12020  0.54940  Biso   1.000  O
  O104     1.0000 0.81470  0.90180  0.50157  Biso   1.000  O
  O105     1.0000 0.95060  0.97860  0.55003  Biso   1.000  O
  O106     1.0000 0.87470  0.08470  0.45676  Biso   1.000  O
  O107     1.0000 0.69970  0.39490  0.66393  Biso   1.000  O
  O108     1.0000 0.65920  0.61820  0.61597  Biso   1.000  O
  O109     1.0000 0.70770  0.43760  0.56174  Biso   1.000  O
  O110     1.0000 0.57520  0.41080  0.58691  Biso   1.000  O
  O111     1.0000 0.79700  0.57650  0.48333  Biso   1.000  O
  O112     1.0000 0.88980  0.43540  0.44528  Biso   1.000  O
  O113     1.0000 0.93560  0.57800  0.53810  Biso   1.000  O
  O114     1.0000 0.93900  0.62810  0.50310  Biso   1.000  O
  O115     1.0000 0.89440  0.43560  0.55560  Biso   1.000  O
  O116     1.0000 0.85830  0.37160  0.53240  Biso   1.000  O
  O117     1.0000 0.82900  0.25480  0.84375  Biso   1.000  O
  O118     1.0000 0.83660  0.29500  0.74077  Biso   1.000  O
  O119     1.0000 0.82580  0.06060  0.77470  Biso   1.000  O
  O120     1.0000 0.71020  0.21450  0.76274  Biso   1.000  O
  O121     1.0000 0.45150  0.03770  0.68415  Biso   1.000  O
  O122     1.0000 0.55880  0.48110  0.71305  Biso   1.000  O
  O123     1.0000 0.57160  0.02300  0.76290  Biso   1.000  O
  O124     1.0000 0.50910  0.31070  0.76952  Biso   1.000  O
  O125     1.0000 0.70300  0.13350  0.61480  Biso   1.000  O
  O126     1.0000 0.61880  0.98180  0.65279  Biso   1.000  O
  O127     1.0000 0.64370  0.93570  0.55375  Biso   1.000  O
  O128     1.0000 0.74930  0.89600  0.64145  Biso   1.000  O
  O129     1.0000 0.60270  0.65520  0.48068  Biso   1.000  O
  O130     1.0000 0.51660  0.84120  0.42488  Biso   1.000  O
  O131     1.0000 0.57140  0.67220  0.37003  Biso   1.000  O
  O132     1.0000 0.66440  0.83300  0.43614  Biso   1.000  O
  O133     1.0000 0.85050  0.55140  0.65540  Biso   1.000  O
  O134     1.0000 0.90480  0.73200  0.72620  Biso   1.000  O
  O135     1.0000 0.88850  0.76630  0.61813  Biso   1.000  O
  O136     1.0000 0.99420  0.61900  0.67192  Biso   1.000  O
  La13     1.0000 0.57434  0.22393  0.68145  Biso   1.000  La
  La14     1.0000 0.73871  0.72990  0.54769  Biso   1.000  La
  La15     1.0000 0.03128  0.76099  0.58382  Biso   1.000  La
  La16     1.0000 0.82877  0.29522  0.62947  Biso   1.000  La
