data_image0
_cell_length_a       5.0484
_cell_length_b       12.3699
_cell_length_c       8.2547
_cell_angle_alpha    90
_cell_angle_beta     92.064
_cell_angle_gamma    90

_symmetry_space_group_name_H-M    "P 1"
_symmetry_int_tables_number       1

loop_
  _symmetry_equiv_pos_as_xyz
  'x, y, z'

loop_
  _atom_site_label
  _atom_site_occupancy
  _atom_site_fract_x
  _atom_site_fract_y
  _atom_site_fract_z
  _atom_site_thermal_displace_type
  _atom_site_B_iso_or_equiv
  _atom_site_type_symbol
  P1       1.0000 0.00810  0.48600  0.23330  Biso   1.000  P
  O1       1.0000 0.72100  0.51850  0.20550  Biso   1.000  O
  O2       1.0000 0.20200  0.53960  0.12700  Biso   1.000  O
  O3       1.0000 0.01400  0.36310  0.23070  Biso   1.000  O
  F1       1.0000 0.45800  0.34890  0.04350  Biso   1.000  F
  C1       1.0000 0.08600  0.52640  0.44200  Biso   1.000  C
  P2       1.0000 0.99190  0.98600  0.76670  Biso   1.000  P
  O4       1.0000 0.27900  0.01850  0.79450  Biso   1.000  O
  O5       1.0000 0.79800  0.03960  0.87300  Biso   1.000  O
  O6       1.0000 0.98600  0.86310  0.76930  Biso   1.000  O
  F2       1.0000 0.54200  0.84890  0.95650  Biso   1.000  F
  C2       1.0000 0.91400  0.02640  0.55800  Biso   1.000  C
  P3       1.0000 0.99190  0.51400  0.76670  Biso   1.000  P
  O7       1.0000 0.27900  0.48150  0.79450  Biso   1.000  O
  O8       1.0000 0.79800  0.46040  0.87300  Biso   1.000  O
  O9       1.0000 0.98600  0.63690  0.76930  Biso   1.000  O
  F3       1.0000 0.54200  0.65110  0.95650  Biso   1.000  F
  C3       1.0000 0.91400  0.47360  0.55800  Biso   1.000  C
  P4       1.0000 0.00810  0.01400  0.23330  Biso   1.000  P
  O10      1.0000 0.72100  0.98150  0.20550  Biso   1.000  O
  O11      1.0000 0.20200  0.96040  0.12700  Biso   1.000  O
  O12      1.0000 0.01400  0.13690  0.23070  Biso   1.000  O
  F4       1.0000 0.45800  0.15110  0.04350  Biso   1.000  F
  C4       1.0000 0.08600  0.97360  0.44200  Biso   1.000  C
  Ga1      1.0000 0.50000  0.50000  0.00000  Biso   1.000  Ga
  Ga2      1.0000 0.50000  0.00000  0.00000  Biso   1.000  Ga
  Ga3      1.0000 0.22930  0.25000  0.14530  Biso   1.000  Ga
  Ga4      1.0000 0.77070  0.75000  0.85470  Biso   1.000  Ga
