data_image0
_cell_length_a       18.542
_cell_length_b       18.542
_cell_length_c       37.5167
_cell_angle_alpha    90
_cell_angle_beta     90
_cell_angle_gamma    120

_symmetry_space_group_name_H-M    "P 1"
_symmetry_int_tables_number       1

loop_
  _symmetry_equiv_pos_as_xyz
  'x, y, z'

loop_
  _atom_site_label
  _atom_site_occupancy
  _atom_site_fract_x
  _atom_site_fract_y
  _atom_site_fract_z
  _atom_site_thermal_displace_type
  _atom_site_B_iso_or_equiv
  _atom_site_type_symbol
  O1       1.0000 0.48220  0.37210  0.99599  Biso   1.000  O
  O2       1.0000 0.44200  0.41050  0.04501  Biso   1.000  O
  C1       1.0000 0.45300  0.36030  0.02720  Biso   1.000  C
  C2       1.0000 0.43080  0.28010  0.04451  Biso   1.000  C
  C3       1.0000 0.39940  0.26520  0.07793  Biso   1.000  C
  H1       1.0000 0.38860  0.30370  0.08900  Biso   1.000  H
  C4       1.0000 0.31750  0.21920  0.14711  Biso   1.000  C
  H2       1.0000 0.25840  0.17930  0.14560  Biso   1.000  H
  H3       1.0000 0.32950  0.27030  0.13510  Biso   1.000  H
  C5       1.0000 0.37220  0.24270  0.15440  Biso   1.000  C
  H4       1.0000 0.38100  0.29310  0.14280  Biso   1.000  H
  H5       1.0000 0.42240  0.25320  0.16690  Biso   1.000  H
  O3       1.0000 0.14887  0.70543  0.32932  Biso   1.000  O
  O4       1.0000 0.10867  0.74383  0.37834  Biso   1.000  O
  C6       1.0000 0.11967  0.69363  0.36053  Biso   1.000  C
  C7       1.0000 0.09747  0.61343  0.37784  Biso   1.000  C
  C8       1.0000 0.06607  0.59853  0.41126  Biso   1.000  C
  H6       1.0000 0.05527  0.63703  0.42233  Biso   1.000  H
  C9       1.0000 0.98417  0.55253  0.48044  Biso   1.000  C
  H7       1.0000 0.92507  0.51263  0.47893  Biso   1.000  H
  H8       1.0000 0.99617  0.60363  0.46843  Biso   1.000  H
  C10      1.0000 0.03887  0.57603  0.48773  Biso   1.000  C
  H9       1.0000 0.04767  0.62643  0.47613  Biso   1.000  H
  H10      1.0000 0.08907  0.58653  0.50023  Biso   1.000  H
  O5       1.0000 0.81553  0.03877  0.66266  Biso   1.000  O
  O6       1.0000 0.77533  0.07717  0.71168  Biso   1.000  O
  C11      1.0000 0.78633  0.02697  0.69387  Biso   1.000  C
  C12      1.0000 0.76413  0.94677  0.71118  Biso   1.000  C
  C13      1.0000 0.73273  0.93187  0.74460  Biso   1.000  C
  H11      1.0000 0.72193  0.97037  0.75567  Biso   1.000  H
  C14      1.0000 0.65083  0.88587  0.81378  Biso   1.000  C
  H12      1.0000 0.59173  0.84597  0.81227  Biso   1.000  H
  H13      1.0000 0.66283  0.93697  0.80177  Biso   1.000  H
  C15      1.0000 0.70553  0.90937  0.82107  Biso   1.000  C
  H14      1.0000 0.71433  0.95977  0.80947  Biso   1.000  H
  H15      1.0000 0.75573  0.91987  0.83357  Biso   1.000  H
  O7       1.0000 0.62790  0.11010  0.99599  Biso   1.000  O
  O8       1.0000 0.58950  0.03150  0.04501  Biso   1.000  O
  C16      1.0000 0.63970  0.09270  0.02720  Biso   1.000  C
  C17      1.0000 0.71990  0.15070  0.04451  Biso   1.000  C
  C18      1.0000 0.73480  0.13420  0.07793  Biso   1.000  C
  H16      1.0000 0.69630  0.08490  0.08900  Biso   1.000  H
  C19      1.0000 0.78080  0.09830  0.14711  Biso   1.000  C
  H17      1.0000 0.82070  0.07910  0.14560  Biso   1.000  H
  H18      1.0000 0.72970  0.05920  0.13510  Biso   1.000  H
  C20      1.0000 0.75730  0.12950  0.15440  Biso   1.000  C
  H19      1.0000 0.70690  0.08790  0.14280  Biso   1.000  H
  H20      1.0000 0.74680  0.16920  0.16690  Biso   1.000  H
  O9       1.0000 0.29457  0.44343  0.32932  Biso   1.000  O
  O10      1.0000 0.25617  0.36483  0.37834  Biso   1.000  O
  C21      1.0000 0.30637  0.42603  0.36053  Biso   1.000  C
  C22      1.0000 0.38657  0.48403  0.37784  Biso   1.000  C
  C23      1.0000 0.40147  0.46753  0.41126  Biso   1.000  C
  H21      1.0000 0.36297  0.41823  0.42233  Biso   1.000  H
  C24      1.0000 0.44747  0.43163  0.48044  Biso   1.000  C
  H22      1.0000 0.48737  0.41243  0.47893  Biso   1.000  H
  H23      1.0000 0.39637  0.39253  0.46843  Biso   1.000  H
  C25      1.0000 0.42397  0.46283  0.48773  Biso   1.000  C
  H24      1.0000 0.37357  0.42123  0.47613  Biso   1.000  H
  H25      1.0000 0.41347  0.50253  0.50023  Biso   1.000  H
  O11      1.0000 0.96123  0.77677  0.66266  Biso   1.000  O
  O12      1.0000 0.92283  0.69817  0.71168  Biso   1.000  O
  C26      1.0000 0.97303  0.75937  0.69387  Biso   1.000  C
  C27      1.0000 0.05323  0.81737  0.71118  Biso   1.000  C
  C28      1.0000 0.06813  0.80087  0.74460  Biso   1.000  C
  H26      1.0000 0.02963  0.75157  0.75567  Biso   1.000  H
  C29      1.0000 0.11413  0.76497  0.81378  Biso   1.000  C
  H27      1.0000 0.15403  0.74577  0.81227  Biso   1.000  H
  H28      1.0000 0.06303  0.72587  0.80177  Biso   1.000  H
  C30      1.0000 0.09063  0.79617  0.82107  Biso   1.000  C
  H29      1.0000 0.04023  0.75457  0.80947  Biso   1.000  H
  H30      1.0000 0.08013  0.83587  0.83357  Biso   1.000  H
  O13      1.0000 0.88990  0.51780  0.99599  Biso   1.000  O
  O14      1.0000 0.96850  0.55800  0.04501  Biso   1.000  O
  C31      1.0000 0.90730  0.54700  0.02720  Biso   1.000  C
  C32      1.0000 0.84930  0.56920  0.04451  Biso   1.000  C
  C33      1.0000 0.86580  0.60060  0.07793  Biso   1.000  C
  H31      1.0000 0.91510  0.61140  0.08900  Biso   1.000  H
  C34      1.0000 0.90170  0.68250  0.14711  Biso   1.000  C
  H32      1.0000 0.92090  0.74160  0.14560  Biso   1.000  H
  H33      1.0000 0.94080  0.67050  0.13510  Biso   1.000  H
  C35      1.0000 0.87050  0.62780  0.15440  Biso   1.000  C
  H34      1.0000 0.91210  0.61900  0.14280  Biso   1.000  H
  H35      1.0000 0.83080  0.57760  0.16690  Biso   1.000  H
  O15      1.0000 0.55657  0.85113  0.32932  Biso   1.000  O
  O16      1.0000 0.63517  0.89133  0.37834  Biso   1.000  O
  C36      1.0000 0.57397  0.88033  0.36053  Biso   1.000  C
  C37      1.0000 0.51597  0.90253  0.37784  Biso   1.000  C
  C38      1.0000 0.53247  0.93393  0.41126  Biso   1.000  C
  H36      1.0000 0.58177  0.94473  0.42233  Biso   1.000  H
  C39      1.0000 0.56837  0.01583  0.48044  Biso   1.000  C
  H37      1.0000 0.58757  0.07493  0.47893  Biso   1.000  H
  H38      1.0000 0.60747  0.00383  0.46843  Biso   1.000  H
  C40      1.0000 0.53717  0.96113  0.48773  Biso   1.000  C
  H39      1.0000 0.57877  0.95233  0.47613  Biso   1.000  H
  H40      1.0000 0.49747  0.91093  0.50023  Biso   1.000  H
  O17      1.0000 0.22323  0.18447  0.66266  Biso   1.000  O
  O18      1.0000 0.30183  0.22467  0.71168  Biso   1.000  O
  C41      1.0000 0.24063  0.21367  0.69387  Biso   1.000  C
  C42      1.0000 0.18263  0.23587  0.71118  Biso   1.000  C
  C43      1.0000 0.19913  0.26727  0.74460  Biso   1.000  C
  H41      1.0000 0.24843  0.27807  0.75567  Biso   1.000  H
  C44      1.0000 0.23503  0.34917  0.81378  Biso   1.000  C
  H42      1.0000 0.25423  0.40827  0.81227  Biso   1.000  H
  H43      1.0000 0.27413  0.33717  0.80177  Biso   1.000  H
  C45      1.0000 0.20383  0.29447  0.82107  Biso   1.000  C
  H44      1.0000 0.24543  0.28567  0.80947  Biso   1.000  H
  H45      1.0000 0.16413  0.24427  0.83357  Biso   1.000  H
  O19      1.0000 0.37210  0.48220  0.00401  Biso   1.000  O
  O20      1.0000 0.41050  0.44200  0.95499  Biso   1.000  O
  C46      1.0000 0.36030  0.45300  0.97280  Biso   1.000  C
  C47      1.0000 0.28010  0.43080  0.95549  Biso   1.000  C
  C48      1.0000 0.26520  0.39940  0.92207  Biso   1.000  C
  H46      1.0000 0.30370  0.38860  0.91100  Biso   1.000  H
  C49      1.0000 0.21920  0.31750  0.85289  Biso   1.000  C
  H47      1.0000 0.17930  0.25840  0.85440  Biso   1.000  H
  H48      1.0000 0.27030  0.32950  0.86490  Biso   1.000  H
  C50      1.0000 0.24270  0.37220  0.84560  Biso   1.000  C
  H49      1.0000 0.29310  0.38100  0.85720  Biso   1.000  H
  H50      1.0000 0.25320  0.42240  0.83310  Biso   1.000  H
  O21      1.0000 0.03877  0.81553  0.33734  Biso   1.000  O
  O22      1.0000 0.07717  0.77533  0.28832  Biso   1.000  O
  C51      1.0000 0.02697  0.78633  0.30613  Biso   1.000  C
  C52      1.0000 0.94677  0.76413  0.28882  Biso   1.000  C
  C53      1.0000 0.93187  0.73273  0.25540  Biso   1.000  C
  H51      1.0000 0.97037  0.72193  0.24433  Biso   1.000  H
  C54      1.0000 0.88587  0.65083  0.18622  Biso   1.000  C
  H52      1.0000 0.84597  0.59173  0.18773  Biso   1.000  H
  H53      1.0000 0.93697  0.66283  0.19823  Biso   1.000  H
  C55      1.0000 0.90937  0.70553  0.17893  Biso   1.000  C
  H54      1.0000 0.95977  0.71433  0.19053  Biso   1.000  H
  H55      1.0000 0.91987  0.75573  0.16643  Biso   1.000  H
  O23      1.0000 0.70543  0.14887  0.67068  Biso   1.000  O
  O24      1.0000 0.74383  0.10867  0.62166  Biso   1.000  O
  C56      1.0000 0.69363  0.11967  0.63947  Biso   1.000  C
  C57      1.0000 0.61343  0.09747  0.62216  Biso   1.000  C
  C58      1.0000 0.59853  0.06607  0.58874  Biso   1.000  C
  H56      1.0000 0.63703  0.05527  0.57767  Biso   1.000  H
  C59      1.0000 0.55253  0.98417  0.51956  Biso   1.000  C
  H57      1.0000 0.51263  0.92507  0.52107  Biso   1.000  H
  H58      1.0000 0.60363  0.99617  0.53157  Biso   1.000  H
  C60      1.0000 0.57603  0.03887  0.51227  Biso   1.000  C
  H59      1.0000 0.62643  0.04767  0.52387  Biso   1.000  H
  H60      1.0000 0.58653  0.08907  0.49977  Biso   1.000  H
  O25      1.0000 0.11010  0.62790  0.00401  Biso   1.000  O
  O26      1.0000 0.03150  0.58950  0.95499  Biso   1.000  O
  C61      1.0000 0.09270  0.63970  0.97280  Biso   1.000  C
  C62      1.0000 0.15070  0.71990  0.95549  Biso   1.000  C
  C63      1.0000 0.13420  0.73480  0.92207  Biso   1.000  C
  H61      1.0000 0.08490  0.69630  0.91100  Biso   1.000  H
  C64      1.0000 0.09830  0.78080  0.85289  Biso   1.000  C
  H62      1.0000 0.07910  0.82070  0.85440  Biso   1.000  H
  H63      1.0000 0.05920  0.72970  0.86490  Biso   1.000  H
  C65      1.0000 0.12950  0.75730  0.84560  Biso   1.000  C
  H64      1.0000 0.08790  0.70690  0.85720  Biso   1.000  H
  H65      1.0000 0.16920  0.74680  0.83310  Biso   1.000  H
  O27      1.0000 0.77677  0.96123  0.33734  Biso   1.000  O
  O28      1.0000 0.69817  0.92283  0.28832  Biso   1.000  O
  C66      1.0000 0.75937  0.97303  0.30613  Biso   1.000  C
  C67      1.0000 0.81737  0.05323  0.28882  Biso   1.000  C
  C68      1.0000 0.80087  0.06813  0.25540  Biso   1.000  C
  H66      1.0000 0.75157  0.02963  0.24433  Biso   1.000  H
  C69      1.0000 0.76497  0.11413  0.18622  Biso   1.000  C
  H67      1.0000 0.74577  0.15403  0.18773  Biso   1.000  H
  H68      1.0000 0.72587  0.06303  0.19823  Biso   1.000  H
  C70      1.0000 0.79617  0.09063  0.17893  Biso   1.000  C
  H69      1.0000 0.75457  0.04023  0.19053  Biso   1.000  H
  H70      1.0000 0.83587  0.08013  0.16643  Biso   1.000  H
  O29      1.0000 0.44343  0.29457  0.67068  Biso   1.000  O
  O30      1.0000 0.36483  0.25617  0.62166  Biso   1.000  O
  C71      1.0000 0.42603  0.30637  0.63947  Biso   1.000  C
  C72      1.0000 0.48403  0.38657  0.62216  Biso   1.000  C
  C73      1.0000 0.46753  0.40147  0.58874  Biso   1.000  C
  H71      1.0000 0.41823  0.36297  0.57767  Biso   1.000  H
  C74      1.0000 0.43163  0.44747  0.51956  Biso   1.000  C
  H72      1.0000 0.41243  0.48737  0.52107  Biso   1.000  H
  H73      1.0000 0.39253  0.39637  0.53157  Biso   1.000  H
  C75      1.0000 0.46283  0.42397  0.51227  Biso   1.000  C
  H74      1.0000 0.42123  0.37357  0.52387  Biso   1.000  H
  H75      1.0000 0.50253  0.41347  0.49977  Biso   1.000  H
  O31      1.0000 0.51780  0.88990  0.00401  Biso   1.000  O
  O32      1.0000 0.55800  0.96850  0.95499  Biso   1.000  O
  C76      1.0000 0.54700  0.90730  0.97280  Biso   1.000  C
  C77      1.0000 0.56920  0.84930  0.95549  Biso   1.000  C
  C78      1.0000 0.60060  0.86580  0.92207  Biso   1.000  C
  H76      1.0000 0.61140  0.91510  0.91100  Biso   1.000  H
  C79      1.0000 0.68250  0.90170  0.85289  Biso   1.000  C
  H77      1.0000 0.74160  0.92090  0.85440  Biso   1.000  H
  H78      1.0000 0.67050  0.94080  0.86490  Biso   1.000  H
  C80      1.0000 0.62780  0.87050  0.84560  Biso   1.000  C
  H79      1.0000 0.61900  0.91210  0.85720  Biso   1.000  H
  H80      1.0000 0.57760  0.83080  0.83310  Biso   1.000  H
  O33      1.0000 0.18447  0.22323  0.33734  Biso   1.000  O
  O34      1.0000 0.22467  0.30183  0.28832  Biso   1.000  O
  C81      1.0000 0.21367  0.24063  0.30613  Biso   1.000  C
  C82      1.0000 0.23587  0.18263  0.28882  Biso   1.000  C
  C83      1.0000 0.26727  0.19913  0.25540  Biso   1.000  C
  H81      1.0000 0.27807  0.24843  0.24433  Biso   1.000  H
  C84      1.0000 0.34917  0.23503  0.18622  Biso   1.000  C
  H82      1.0000 0.40827  0.25423  0.18773  Biso   1.000  H
  H83      1.0000 0.33717  0.27413  0.19823  Biso   1.000  H
  C85      1.0000 0.29447  0.20383  0.17893  Biso   1.000  C
  H84      1.0000 0.28567  0.24543  0.19053  Biso   1.000  H
  H85      1.0000 0.24427  0.16413  0.16643  Biso   1.000  H
  O35      1.0000 0.85113  0.55657  0.67068  Biso   1.000  O
  O36      1.0000 0.89133  0.63517  0.62166  Biso   1.000  O
  C86      1.0000 0.88033  0.57397  0.63947  Biso   1.000  C
  C87      1.0000 0.90253  0.51597  0.62216  Biso   1.000  C
  C88      1.0000 0.93393  0.53247  0.58874  Biso   1.000  C
  H86      1.0000 0.94473  0.58177  0.57767  Biso   1.000  H
  C89      1.0000 0.01583  0.56837  0.51956  Biso   1.000  C
  H87      1.0000 0.07493  0.58757  0.52107  Biso   1.000  H
  H88      1.0000 0.00383  0.60747  0.53157  Biso   1.000  H
  C90      1.0000 0.96113  0.53717  0.51227  Biso   1.000  C
  H89      1.0000 0.95233  0.57877  0.52387  Biso   1.000  H
  H90      1.0000 0.91093  0.49747  0.49977  Biso   1.000  H
  O37      1.0000 0.51780  0.62790  0.00401  Biso   1.000  O
  O38      1.0000 0.55800  0.58950  0.95499  Biso   1.000  O
  C91      1.0000 0.54700  0.63970  0.97280  Biso   1.000  C
  C92      1.0000 0.56920  0.71990  0.95549  Biso   1.000  C
  C93      1.0000 0.60060  0.73480  0.92207  Biso   1.000  C
  H91      1.0000 0.61140  0.69630  0.91100  Biso   1.000  H
  C94      1.0000 0.68250  0.78080  0.85289  Biso   1.000  C
  H92      1.0000 0.74160  0.82070  0.85440  Biso   1.000  H
  H93      1.0000 0.67050  0.72970  0.86490  Biso   1.000  H
  C95      1.0000 0.62780  0.75730  0.84560  Biso   1.000  C
  H94      1.0000 0.61900  0.70690  0.85720  Biso   1.000  H
  H95      1.0000 0.57760  0.74680  0.83310  Biso   1.000  H
  O39      1.0000 0.18447  0.96123  0.33734  Biso   1.000  O
  O40      1.0000 0.22467  0.92283  0.28832  Biso   1.000  O
  C96      1.0000 0.21367  0.97303  0.30613  Biso   1.000  C
  C97      1.0000 0.23587  0.05323  0.28882  Biso   1.000  C
  C98      1.0000 0.26727  0.06813  0.25540  Biso   1.000  C
  H96      1.0000 0.27807  0.02963  0.24433  Biso   1.000  H
  C99      1.0000 0.34917  0.11413  0.18622  Biso   1.000  C
  H97      1.0000 0.40827  0.15403  0.18773  Biso   1.000  H
  H98      1.0000 0.33717  0.06303  0.19823  Biso   1.000  H
  C100     1.0000 0.29447  0.09063  0.17893  Biso   1.000  C
  H99      1.0000 0.28567  0.04023  0.19053  Biso   1.000  H
  H100     1.0000 0.24427  0.08013  0.16643  Biso   1.000  H
  O41      1.0000 0.85113  0.29457  0.67068  Biso   1.000  O
  O42      1.0000 0.89133  0.25617  0.62166  Biso   1.000  O
  C101     1.0000 0.88033  0.30637  0.63947  Biso   1.000  C
  C102     1.0000 0.90253  0.38657  0.62216  Biso   1.000  C
  C103     1.0000 0.93393  0.40147  0.58874  Biso   1.000  C
  H101     1.0000 0.94473  0.36297  0.57767  Biso   1.000  H
  C104     1.0000 0.01583  0.44747  0.51956  Biso   1.000  C
  H102     1.0000 0.07493  0.48737  0.52107  Biso   1.000  H
  H103     1.0000 0.00383  0.39637  0.53157  Biso   1.000  H
  C105     1.0000 0.96113  0.42397  0.51227  Biso   1.000  C
  H104     1.0000 0.95233  0.37357  0.52387  Biso   1.000  H
  H105     1.0000 0.91093  0.41347  0.49977  Biso   1.000  H
  O43      1.0000 0.37210  0.88990  0.00401  Biso   1.000  O
  O44      1.0000 0.41050  0.96850  0.95499  Biso   1.000  O
  C106     1.0000 0.36030  0.90730  0.97280  Biso   1.000  C
  C107     1.0000 0.28010  0.84930  0.95549  Biso   1.000  C
  C108     1.0000 0.26520  0.86580  0.92207  Biso   1.000  C
  H106     1.0000 0.30370  0.91510  0.91100  Biso   1.000  H
  C109     1.0000 0.21920  0.90170  0.85289  Biso   1.000  C
  H107     1.0000 0.17930  0.92090  0.85440  Biso   1.000  H
  H108     1.0000 0.27030  0.94080  0.86490  Biso   1.000  H
  C110     1.0000 0.24270  0.87050  0.84560  Biso   1.000  C
  H109     1.0000 0.29310  0.91210  0.85720  Biso   1.000  H
  H110     1.0000 0.25320  0.83080  0.83310  Biso   1.000  H
  O45      1.0000 0.03877  0.22323  0.33734  Biso   1.000  O
  O46      1.0000 0.07717  0.30183  0.28832  Biso   1.000  O
  C111     1.0000 0.02697  0.24063  0.30613  Biso   1.000  C
  C112     1.0000 0.94677  0.18263  0.28882  Biso   1.000  C
  C113     1.0000 0.93187  0.19913  0.25540  Biso   1.000  C
  H111     1.0000 0.97037  0.24843  0.24433  Biso   1.000  H
  C114     1.0000 0.88587  0.23503  0.18622  Biso   1.000  C
  H112     1.0000 0.84597  0.25423  0.18773  Biso   1.000  H
  H113     1.0000 0.93697  0.27413  0.19823  Biso   1.000  H
  C115     1.0000 0.90937  0.20383  0.17893  Biso   1.000  C
  H114     1.0000 0.95977  0.24543  0.19053  Biso   1.000  H
  H115     1.0000 0.91987  0.16413  0.16643  Biso   1.000  H
  O47      1.0000 0.70543  0.55657  0.67068  Biso   1.000  O
  O48      1.0000 0.74383  0.63517  0.62166  Biso   1.000  O
  C116     1.0000 0.69363  0.57397  0.63947  Biso   1.000  C
  C117     1.0000 0.61343  0.51597  0.62216  Biso   1.000  C
  C118     1.0000 0.59853  0.53247  0.58874  Biso   1.000  C
  H116     1.0000 0.63703  0.58177  0.57767  Biso   1.000  H
  C119     1.0000 0.55253  0.56837  0.51956  Biso   1.000  C
  H117     1.0000 0.51263  0.58757  0.52107  Biso   1.000  H
  H118     1.0000 0.60363  0.60747  0.53157  Biso   1.000  H
  C120     1.0000 0.57603  0.53717  0.51227  Biso   1.000  C
  H119     1.0000 0.62643  0.57877  0.52387  Biso   1.000  H
  H120     1.0000 0.58653  0.49747  0.49977  Biso   1.000  H
  O49      1.0000 0.11010  0.48220  0.00401  Biso   1.000  O
  O50      1.0000 0.03150  0.44200  0.95499  Biso   1.000  O
  C121     1.0000 0.09270  0.45300  0.97280  Biso   1.000  C
  C122     1.0000 0.15070  0.43080  0.95549  Biso   1.000  C
  C123     1.0000 0.13420  0.39940  0.92207  Biso   1.000  C
  H121     1.0000 0.08490  0.38860  0.91100  Biso   1.000  H
  C124     1.0000 0.09830  0.31750  0.85289  Biso   1.000  C
  H122     1.0000 0.07910  0.25840  0.85440  Biso   1.000  H
  H123     1.0000 0.05920  0.32950  0.86490  Biso   1.000  H
  C125     1.0000 0.12950  0.37220  0.84560  Biso   1.000  C
  H124     1.0000 0.08790  0.38100  0.85720  Biso   1.000  H
  H125     1.0000 0.16920  0.42240  0.83310  Biso   1.000  H
  O51      1.0000 0.77677  0.81553  0.33734  Biso   1.000  O
  O52      1.0000 0.69817  0.77533  0.28832  Biso   1.000  O
  C126     1.0000 0.75937  0.78633  0.30613  Biso   1.000  C
  C127     1.0000 0.81737  0.76413  0.28882  Biso   1.000  C
  C128     1.0000 0.80087  0.73273  0.25540  Biso   1.000  C
  H126     1.0000 0.75157  0.72193  0.24433  Biso   1.000  H
  C129     1.0000 0.76497  0.65083  0.18622  Biso   1.000  C
  H127     1.0000 0.74577  0.59173  0.18773  Biso   1.000  H
  H128     1.0000 0.72587  0.66283  0.19823  Biso   1.000  H
  C130     1.0000 0.79617  0.70553  0.17893  Biso   1.000  C
  H129     1.0000 0.75457  0.71433  0.19053  Biso   1.000  H
  H130     1.0000 0.83587  0.75573  0.16643  Biso   1.000  H
  O53      1.0000 0.44343  0.14887  0.67068  Biso   1.000  O
  O54      1.0000 0.36483  0.10867  0.62166  Biso   1.000  O
  C131     1.0000 0.42603  0.11967  0.63947  Biso   1.000  C
  C132     1.0000 0.48403  0.09747  0.62216  Biso   1.000  C
  C133     1.0000 0.46753  0.06607  0.58874  Biso   1.000  C
  H131     1.0000 0.41823  0.05527  0.57767  Biso   1.000  H
  C134     1.0000 0.43163  0.98417  0.51956  Biso   1.000  C
  H132     1.0000 0.41243  0.92507  0.52107  Biso   1.000  H
  H133     1.0000 0.39253  0.99617  0.53157  Biso   1.000  H
  C135     1.0000 0.46283  0.03887  0.51227  Biso   1.000  C
  H134     1.0000 0.42123  0.04767  0.52387  Biso   1.000  H
  H135     1.0000 0.50253  0.08907  0.49977  Biso   1.000  H
  O55      1.0000 0.62790  0.51780  0.99599  Biso   1.000  O
  O56      1.0000 0.58950  0.55800  0.04501  Biso   1.000  O
  C136     1.0000 0.63970  0.54700  0.02720  Biso   1.000  C
  C137     1.0000 0.71990  0.56920  0.04451  Biso   1.000  C
  C138     1.0000 0.73480  0.60060  0.07793  Biso   1.000  C
  H136     1.0000 0.69630  0.61140  0.08900  Biso   1.000  H
  C139     1.0000 0.78080  0.68250  0.14711  Biso   1.000  C
  H137     1.0000 0.82070  0.74160  0.14560  Biso   1.000  H
  H138     1.0000 0.72970  0.67050  0.13510  Biso   1.000  H
  C140     1.0000 0.75730  0.62780  0.15440  Biso   1.000  C
  H139     1.0000 0.70690  0.61900  0.14280  Biso   1.000  H
  H140     1.0000 0.74680  0.57760  0.16690  Biso   1.000  H
  O57      1.0000 0.29457  0.85113  0.32932  Biso   1.000  O
  O58      1.0000 0.25617  0.89133  0.37834  Biso   1.000  O
  C141     1.0000 0.30637  0.88033  0.36053  Biso   1.000  C
  C142     1.0000 0.38657  0.90253  0.37784  Biso   1.000  C
  C143     1.0000 0.40147  0.93393  0.41126  Biso   1.000  C
  H141     1.0000 0.36297  0.94473  0.42233  Biso   1.000  H
  C144     1.0000 0.44747  0.01583  0.48044  Biso   1.000  C
  H142     1.0000 0.48737  0.07493  0.47893  Biso   1.000  H
  H143     1.0000 0.39637  0.00383  0.46843  Biso   1.000  H
  C145     1.0000 0.42397  0.96113  0.48773  Biso   1.000  C
  H144     1.0000 0.37357  0.95233  0.47613  Biso   1.000  H
  H145     1.0000 0.41347  0.91093  0.50023  Biso   1.000  H
  O59      1.0000 0.96123  0.18447  0.66266  Biso   1.000  O
  O60      1.0000 0.92283  0.22467  0.71168  Biso   1.000  O
  C146     1.0000 0.97303  0.21367  0.69387  Biso   1.000  C
  C147     1.0000 0.05323  0.23587  0.71118  Biso   1.000  C
  C148     1.0000 0.06813  0.26727  0.74460  Biso   1.000  C
  H146     1.0000 0.02963  0.27807  0.75567  Biso   1.000  H
  C149     1.0000 0.11413  0.34917  0.81378  Biso   1.000  C
  H147     1.0000 0.15403  0.40827  0.81227  Biso   1.000  H
  H148     1.0000 0.06303  0.33717  0.80177  Biso   1.000  H
  C150     1.0000 0.09063  0.29447  0.82107  Biso   1.000  C
  H149     1.0000 0.04023  0.28567  0.80947  Biso   1.000  H
  H150     1.0000 0.08013  0.24427  0.83357  Biso   1.000  H
  O61      1.0000 0.88990  0.37210  0.99599  Biso   1.000  O
  O62      1.0000 0.96850  0.41050  0.04501  Biso   1.000  O
  C151     1.0000 0.90730  0.36030  0.02720  Biso   1.000  C
  C152     1.0000 0.84930  0.28010  0.04451  Biso   1.000  C
  C153     1.0000 0.86580  0.26520  0.07793  Biso   1.000  C
  H151     1.0000 0.91510  0.30370  0.08900  Biso   1.000  H
  C154     1.0000 0.90170  0.21920  0.14711  Biso   1.000  C
  H152     1.0000 0.92090  0.17930  0.14560  Biso   1.000  H
  H153     1.0000 0.94080  0.27030  0.13510  Biso   1.000  H
  C155     1.0000 0.87050  0.24270  0.15440  Biso   1.000  C
  H154     1.0000 0.91210  0.29310  0.14280  Biso   1.000  H
  H155     1.0000 0.83080  0.25320  0.16690  Biso   1.000  H
  O63      1.0000 0.55657  0.70543  0.32932  Biso   1.000  O
  O64      1.0000 0.63517  0.74383  0.37834  Biso   1.000  O
  C156     1.0000 0.57397  0.69363  0.36053  Biso   1.000  C
  C157     1.0000 0.51597  0.61343  0.37784  Biso   1.000  C
  C158     1.0000 0.53247  0.59853  0.41126  Biso   1.000  C
  H156     1.0000 0.58177  0.63703  0.42233  Biso   1.000  H
  C159     1.0000 0.56837  0.55253  0.48044  Biso   1.000  C
  H157     1.0000 0.58757  0.51263  0.47893  Biso   1.000  H
  H158     1.0000 0.60747  0.60363  0.46843  Biso   1.000  H
  C160     1.0000 0.53717  0.57603  0.48773  Biso   1.000  C
  H159     1.0000 0.57877  0.62643  0.47613  Biso   1.000  H
  H160     1.0000 0.49747  0.58653  0.50023  Biso   1.000  H
  O65      1.0000 0.22323  0.03877  0.66266  Biso   1.000  O
  O66      1.0000 0.30183  0.07717  0.71168  Biso   1.000  O
  C161     1.0000 0.24063  0.02697  0.69387  Biso   1.000  C
  C162     1.0000 0.18263  0.94677  0.71118  Biso   1.000  C
  C163     1.0000 0.19913  0.93187  0.74460  Biso   1.000  C
  H161     1.0000 0.24843  0.97037  0.75567  Biso   1.000  H
  C164     1.0000 0.23503  0.88587  0.81378  Biso   1.000  C
  H162     1.0000 0.25423  0.84597  0.81227  Biso   1.000  H
  H163     1.0000 0.27413  0.93697  0.80177  Biso   1.000  H
  C165     1.0000 0.20383  0.90937  0.82107  Biso   1.000  C
  H164     1.0000 0.24543  0.95977  0.80947  Biso   1.000  H
  H165     1.0000 0.16413  0.91987  0.83357  Biso   1.000  H
  O67      1.0000 0.48220  0.11010  0.99599  Biso   1.000  O
  O68      1.0000 0.44200  0.03150  0.04501  Biso   1.000  O
  C166     1.0000 0.45300  0.09270  0.02720  Biso   1.000  C
  C167     1.0000 0.43080  0.15070  0.04451  Biso   1.000  C
  C168     1.0000 0.39940  0.13420  0.07793  Biso   1.000  C
  H166     1.0000 0.38860  0.08490  0.08900  Biso   1.000  H
  C169     1.0000 0.31750  0.09830  0.14711  Biso   1.000  C
  H167     1.0000 0.25840  0.07910  0.14560  Biso   1.000  H
  H168     1.0000 0.32950  0.05920  0.13510  Biso   1.000  H
  C170     1.0000 0.37220  0.12950  0.15440  Biso   1.000  C
  H169     1.0000 0.38100  0.08790  0.14280  Biso   1.000  H
  H170     1.0000 0.42240  0.16920  0.16690  Biso   1.000  H
  O69      1.0000 0.14887  0.44343  0.32932  Biso   1.000  O
  O70      1.0000 0.10867  0.36483  0.37834  Biso   1.000  O
  C171     1.0000 0.11967  0.42603  0.36053  Biso   1.000  C
  C172     1.0000 0.09747  0.48403  0.37784  Biso   1.000  C
  C173     1.0000 0.06607  0.46753  0.41126  Biso   1.000  C
  H171     1.0000 0.05527  0.41823  0.42233  Biso   1.000  H
  C174     1.0000 0.98417  0.43163  0.48044  Biso   1.000  C
  H172     1.0000 0.92507  0.41243  0.47893  Biso   1.000  H
  H173     1.0000 0.99617  0.39253  0.46843  Biso   1.000  H
  C175     1.0000 0.03887  0.46283  0.48773  Biso   1.000  C
  H174     1.0000 0.04767  0.42123  0.47613  Biso   1.000  H
  H175     1.0000 0.08907  0.50253  0.50023  Biso   1.000  H
  O71      1.0000 0.81553  0.77677  0.66266  Biso   1.000  O
  O72      1.0000 0.77533  0.69817  0.71168  Biso   1.000  O
  C176     1.0000 0.78633  0.75937  0.69387  Biso   1.000  C
  C177     1.0000 0.76413  0.81737  0.71118  Biso   1.000  C
  C178     1.0000 0.73273  0.80087  0.74460  Biso   1.000  C
  H176     1.0000 0.72193  0.75157  0.75567  Biso   1.000  H
  C179     1.0000 0.65083  0.76497  0.81378  Biso   1.000  C
  H177     1.0000 0.59173  0.74577  0.81227  Biso   1.000  H
  H178     1.0000 0.66283  0.72587  0.80177  Biso   1.000  H
  C180     1.0000 0.70553  0.79617  0.82107  Biso   1.000  C
  H179     1.0000 0.71433  0.75457  0.80947  Biso   1.000  H
  H180     1.0000 0.75573  0.83587  0.83357  Biso   1.000  H
  Cu1      1.0000 0.52371  0.47629  0.97095  Biso   1.000  Cu
  Cu2      1.0000 0.19038  0.80962  0.30428  Biso   1.000  Cu
  Cu3      1.0000 0.85704  0.14296  0.63762  Biso   1.000  Cu
  Cu4      1.0000 0.52371  0.04742  0.97095  Biso   1.000  Cu
  Cu5      1.0000 0.19038  0.38075  0.30428  Biso   1.000  Cu
  Cu6      1.0000 0.85704  0.71409  0.63762  Biso   1.000  Cu
  Cu7      1.0000 0.95258  0.47629  0.97095  Biso   1.000  Cu
  Cu8      1.0000 0.61925  0.80962  0.30428  Biso   1.000  Cu
  Cu9      1.0000 0.28591  0.14296  0.63762  Biso   1.000  Cu
  Cu10     1.0000 0.47629  0.52371  0.02905  Biso   1.000  Cu
  Cu11     1.0000 0.14296  0.85704  0.36238  Biso   1.000  Cu
  Cu12     1.0000 0.80962  0.19038  0.69572  Biso   1.000  Cu
  Cu13     1.0000 0.04742  0.52371  0.02905  Biso   1.000  Cu
  Cu14     1.0000 0.71409  0.85704  0.36238  Biso   1.000  Cu
  Cu15     1.0000 0.38075  0.19038  0.69572  Biso   1.000  Cu
  Cu16     1.0000 0.47629  0.95258  0.02905  Biso   1.000  Cu
  Cu17     1.0000 0.14296  0.28591  0.36238  Biso   1.000  Cu
  Cu18     1.0000 0.80962  0.61925  0.69572  Biso   1.000  Cu
  N1       1.0000 0.36900  0.18450  0.13320  Biso   1.000  N
  C181     1.0000 0.44690  0.22345  0.02730  Biso   1.000  C
  H181     1.0000 0.46850  0.23425  0.00430  Biso   1.000  H
  C182     1.0000 0.38280  0.19140  0.09640  Biso   1.000  C
  N2       1.0000 0.34140  0.17070  0.12940  Biso   1.000  N
  N3       1.0000 0.03567  0.51783  0.46653  Biso   1.000  N
  C183     1.0000 0.11357  0.55678  0.36063  Biso   1.000  C
  H182     1.0000 0.13517  0.56758  0.33763  Biso   1.000  H
  C184     1.0000 0.04947  0.52473  0.42973  Biso   1.000  C
  N4       1.0000 0.00807  0.50403  0.46273  Biso   1.000  N
  N5       1.0000 0.70233  0.85117  0.79987  Biso   1.000  N
  C185     1.0000 0.78023  0.89012  0.69397  Biso   1.000  C
  H183     1.0000 0.80183  0.90092  0.67097  Biso   1.000  H
  C186     1.0000 0.71613  0.85807  0.76307  Biso   1.000  C
  N6       1.0000 0.67473  0.83737  0.79607  Biso   1.000  N
  N7       1.0000 0.81550  0.18450  0.13320  Biso   1.000  N
  C187     1.0000 0.77655  0.22345  0.02730  Biso   1.000  C
  H184     1.0000 0.76575  0.23425  0.00430  Biso   1.000  H
  C188     1.0000 0.80860  0.19140  0.09640  Biso   1.000  C
  N8       1.0000 0.82930  0.17070  0.12940  Biso   1.000  N
  N9       1.0000 0.48217  0.51783  0.46653  Biso   1.000  N
  C189     1.0000 0.44322  0.55678  0.36063  Biso   1.000  C
  H185     1.0000 0.43242  0.56758  0.33763  Biso   1.000  H
  C190     1.0000 0.47527  0.52473  0.42973  Biso   1.000  C
  N10      1.0000 0.49597  0.50403  0.46273  Biso   1.000  N
  N11      1.0000 0.14883  0.85117  0.79987  Biso   1.000  N
  C191     1.0000 0.10988  0.89012  0.69397  Biso   1.000  C
  H186     1.0000 0.09908  0.90092  0.67097  Biso   1.000  H
  C192     1.0000 0.14193  0.85807  0.76307  Biso   1.000  C
  N12      1.0000 0.16263  0.83737  0.79607  Biso   1.000  N
  N13      1.0000 0.81550  0.63100  0.13320  Biso   1.000  N
  C193     1.0000 0.77655  0.55310  0.02730  Biso   1.000  C
  H187     1.0000 0.76575  0.53150  0.00430  Biso   1.000  H
  C194     1.0000 0.80860  0.61720  0.09640  Biso   1.000  C
  N14      1.0000 0.82930  0.65860  0.12940  Biso   1.000  N
  N15      1.0000 0.48217  0.96433  0.46653  Biso   1.000  N
  C195     1.0000 0.44322  0.88643  0.36063  Biso   1.000  C
  H188     1.0000 0.43242  0.86483  0.33763  Biso   1.000  H
  C196     1.0000 0.47527  0.95053  0.42973  Biso   1.000  C
  N16      1.0000 0.49597  0.99193  0.46273  Biso   1.000  N
  N17      1.0000 0.14883  0.29767  0.79987  Biso   1.000  N
  C197     1.0000 0.10988  0.21977  0.69397  Biso   1.000  C
  H189     1.0000 0.09908  0.19817  0.67097  Biso   1.000  H
  C198     1.0000 0.14193  0.28387  0.76307  Biso   1.000  C
  N18      1.0000 0.16263  0.32527  0.79607  Biso   1.000  N
  N19      1.0000 0.18450  0.36900  0.86680  Biso   1.000  N
  C199     1.0000 0.22345  0.44690  0.97270  Biso   1.000  C
  H190     1.0000 0.23425  0.46850  0.99570  Biso   1.000  H
  C200     1.0000 0.19140  0.38280  0.90360  Biso   1.000  C
  N20      1.0000 0.17070  0.34140  0.87060  Biso   1.000  N
  N21      1.0000 0.85117  0.70233  0.20013  Biso   1.000  N
  C201     1.0000 0.89012  0.78023  0.30603  Biso   1.000  C
  H191     1.0000 0.90092  0.80183  0.32903  Biso   1.000  H
  C202     1.0000 0.85807  0.71613  0.23693  Biso   1.000  C
  N22      1.0000 0.83737  0.67473  0.20393  Biso   1.000  N
  N23      1.0000 0.51783  0.03567  0.53347  Biso   1.000  N
  C203     1.0000 0.55678  0.11357  0.63937  Biso   1.000  C
  H192     1.0000 0.56758  0.13517  0.66237  Biso   1.000  H
  C204     1.0000 0.52473  0.04947  0.57027  Biso   1.000  C
  N24      1.0000 0.50403  0.00807  0.53727  Biso   1.000  N
  N25      1.0000 0.18450  0.81550  0.86680  Biso   1.000  N
  C205     1.0000 0.22345  0.77655  0.97270  Biso   1.000  C
  H193     1.0000 0.23425  0.76575  0.99570  Biso   1.000  H
  C206     1.0000 0.19140  0.80860  0.90360  Biso   1.000  C
  N26      1.0000 0.17070  0.82930  0.87060  Biso   1.000  N
  N27      1.0000 0.85117  0.14883  0.20013  Biso   1.000  N
  C207     1.0000 0.89012  0.10988  0.30603  Biso   1.000  C
  H194     1.0000 0.90092  0.09908  0.32903  Biso   1.000  H
  C208     1.0000 0.85807  0.14193  0.23693  Biso   1.000  C
  N28      1.0000 0.83737  0.16263  0.20393  Biso   1.000  N
  N29      1.0000 0.51783  0.48217  0.53347  Biso   1.000  N
  C209     1.0000 0.55678  0.44322  0.63937  Biso   1.000  C
  H195     1.0000 0.56758  0.43242  0.66237  Biso   1.000  H
  C210     1.0000 0.52473  0.47527  0.57027  Biso   1.000  C
  N30      1.0000 0.50403  0.49597  0.53727  Biso   1.000  N
  N31      1.0000 0.63100  0.81550  0.86680  Biso   1.000  N
  C211     1.0000 0.55310  0.77655  0.97270  Biso   1.000  C
  H196     1.0000 0.53150  0.76575  0.99570  Biso   1.000  H
  C212     1.0000 0.61720  0.80860  0.90360  Biso   1.000  C
  N32      1.0000 0.65860  0.82930  0.87060  Biso   1.000  N
  N33      1.0000 0.29767  0.14883  0.20013  Biso   1.000  N
  C213     1.0000 0.21977  0.10988  0.30603  Biso   1.000  C
  H197     1.0000 0.19817  0.09908  0.32903  Biso   1.000  H
  C214     1.0000 0.28387  0.14193  0.23693  Biso   1.000  C
  N34      1.0000 0.32527  0.16263  0.20393  Biso   1.000  N
  N35      1.0000 0.96433  0.48217  0.53347  Biso   1.000  N
  C215     1.0000 0.88643  0.44322  0.63937  Biso   1.000  C
  H198     1.0000 0.86483  0.43242  0.66237  Biso   1.000  H
  C216     1.0000 0.95053  0.47527  0.57027  Biso   1.000  C
  N36      1.0000 0.99193  0.49597  0.53727  Biso   1.000  N
