data_image0
_cell_length_a       18.7793
_cell_length_b       18.7793
_cell_length_c       32.796
_cell_angle_alpha    90
_cell_angle_beta     90
_cell_angle_gamma    120

_symmetry_space_group_name_H-M    "P 1"
_symmetry_int_tables_number       1

loop_
  _symmetry_equiv_pos_as_xyz
  'x, y, z'

loop_
  _atom_site_label
  _atom_site_occupancy
  _atom_site_fract_x
  _atom_site_fract_y
  _atom_site_fract_z
  _atom_site_thermal_displace_type
  _atom_site_B_iso_or_equiv
  _atom_site_type_symbol
  O1       1.0000 0.37210  0.48280  0.00469  Biso   1.000  O
  O2       1.0000 0.41050  0.44260  0.94859  Biso   1.000  O
  C1       1.0000 0.28010  0.43220  0.94961  Biso   1.000  C
  C2       1.0000 0.26340  0.39770  0.90997  Biso   1.000  C
  H1       1.0000 0.30060  0.38620  0.89710  Biso   1.000  H
  C3       1.0000 0.36020  0.45350  0.96908  Biso   1.000  C
  O3       1.0000 0.03877  0.81613  0.33802  Biso   1.000  O
  O4       1.0000 0.07717  0.77593  0.28192  Biso   1.000  O
  C4       1.0000 0.94677  0.76553  0.28294  Biso   1.000  C
  C5       1.0000 0.93007  0.73103  0.24330  Biso   1.000  C
  H2       1.0000 0.96727  0.71953  0.23043  Biso   1.000  H
  C6       1.0000 0.02687  0.78683  0.30241  Biso   1.000  C
  O5       1.0000 0.70543  0.14947  0.67136  Biso   1.000  O
  O6       1.0000 0.74383  0.10927  0.61526  Biso   1.000  O
  C7       1.0000 0.61343  0.09887  0.61628  Biso   1.000  C
  C8       1.0000 0.59673  0.06437  0.57664  Biso   1.000  C
  H3       1.0000 0.63393  0.05287  0.56377  Biso   1.000  H
  C9       1.0000 0.69353  0.12017  0.63575  Biso   1.000  C
  O7       1.0000 0.51720  0.88930  0.00469  Biso   1.000  O
  O8       1.0000 0.55740  0.96790  0.94859  Biso   1.000  O
  C10      1.0000 0.56780  0.84790  0.94961  Biso   1.000  C
  C11      1.0000 0.60230  0.86570  0.90997  Biso   1.000  C
  H4       1.0000 0.61380  0.91440  0.89710  Biso   1.000  H
  C12      1.0000 0.54650  0.90670  0.96908  Biso   1.000  C
  O9       1.0000 0.18387  0.22263  0.33802  Biso   1.000  O
  O10      1.0000 0.22407  0.30123  0.28192  Biso   1.000  O
  C13      1.0000 0.23447  0.18123  0.28294  Biso   1.000  C
  C14      1.0000 0.26897  0.19903  0.24330  Biso   1.000  C
  H5       1.0000 0.28047  0.24773  0.23043  Biso   1.000  H
  C15      1.0000 0.21317  0.24003  0.30241  Biso   1.000  C
  O11      1.0000 0.85053  0.55597  0.67136  Biso   1.000  O
  O12      1.0000 0.89073  0.63457  0.61526  Biso   1.000  O
  C16      1.0000 0.90113  0.51457  0.61628  Biso   1.000  C
  C17      1.0000 0.93563  0.53237  0.57664  Biso   1.000  C
  H6       1.0000 0.94713  0.58107  0.56377  Biso   1.000  H
  C18      1.0000 0.87983  0.57337  0.63575  Biso   1.000  C
  O13      1.0000 0.11070  0.62790  0.00469  Biso   1.000  O
  O14      1.0000 0.03210  0.58950  0.94859  Biso   1.000  O
  C19      1.0000 0.15210  0.71990  0.94961  Biso   1.000  C
  C20      1.0000 0.13430  0.73660  0.90997  Biso   1.000  C
  H7       1.0000 0.08560  0.69940  0.89710  Biso   1.000  H
  C21      1.0000 0.09330  0.63980  0.96908  Biso   1.000  C
  O15      1.0000 0.77737  0.96123  0.33802  Biso   1.000  O
  O16      1.0000 0.69877  0.92283  0.28192  Biso   1.000  O
  C22      1.0000 0.81877  0.05323  0.28294  Biso   1.000  C
  C23      1.0000 0.80097  0.06993  0.24330  Biso   1.000  C
  H8       1.0000 0.75227  0.03273  0.23043  Biso   1.000  H
  C24      1.0000 0.75997  0.97313  0.30241  Biso   1.000  C
  O17      1.0000 0.44403  0.29457  0.67136  Biso   1.000  O
  O18      1.0000 0.36543  0.25617  0.61526  Biso   1.000  O
  C25      1.0000 0.48543  0.38657  0.61628  Biso   1.000  C
  C26      1.0000 0.46763  0.40327  0.57664  Biso   1.000  C
  H9       1.0000 0.41893  0.36607  0.56377  Biso   1.000  H
  C27      1.0000 0.42663  0.30647  0.63575  Biso   1.000  C
  O19      1.0000 0.48280  0.37210  0.99531  Biso   1.000  O
  O20      1.0000 0.44260  0.41050  0.05141  Biso   1.000  O
  C28      1.0000 0.43220  0.28010  0.05039  Biso   1.000  C
  C29      1.0000 0.39770  0.26340  0.09003  Biso   1.000  C
  H10      1.0000 0.38620  0.30060  0.10290  Biso   1.000  H
  C30      1.0000 0.45350  0.36020  0.03092  Biso   1.000  C
  O21      1.0000 0.14947  0.70543  0.32864  Biso   1.000  O
  O22      1.0000 0.10927  0.74383  0.38474  Biso   1.000  O
  C31      1.0000 0.09887  0.61343  0.38372  Biso   1.000  C
  C32      1.0000 0.06437  0.59673  0.42336  Biso   1.000  C
  H11      1.0000 0.05287  0.63393  0.43623  Biso   1.000  H
  C33      1.0000 0.12017  0.69353  0.36425  Biso   1.000  C
  O23      1.0000 0.81613  0.03877  0.66198  Biso   1.000  O
  O24      1.0000 0.77593  0.07717  0.71808  Biso   1.000  O
  C34      1.0000 0.76553  0.94677  0.71706  Biso   1.000  C
  C35      1.0000 0.73103  0.93007  0.75670  Biso   1.000  C
  H12      1.0000 0.71953  0.96727  0.76957  Biso   1.000  H
  C36      1.0000 0.78683  0.02687  0.69759  Biso   1.000  C
  O25      1.0000 0.88930  0.51720  0.99531  Biso   1.000  O
  O26      1.0000 0.96790  0.55740  0.05141  Biso   1.000  O
  C37      1.0000 0.84790  0.56780  0.05039  Biso   1.000  C
  C38      1.0000 0.86570  0.60230  0.09003  Biso   1.000  C
  H13      1.0000 0.91440  0.61380  0.10290  Biso   1.000  H
  C39      1.0000 0.90670  0.54650  0.03092  Biso   1.000  C
  O27      1.0000 0.55597  0.85053  0.32864  Biso   1.000  O
  O28      1.0000 0.63457  0.89073  0.38474  Biso   1.000  O
  C40      1.0000 0.51457  0.90113  0.38372  Biso   1.000  C
  C41      1.0000 0.53237  0.93563  0.42336  Biso   1.000  C
  H14      1.0000 0.58107  0.94713  0.43623  Biso   1.000  H
  C42      1.0000 0.57337  0.87983  0.36425  Biso   1.000  C
  O29      1.0000 0.22263  0.18387  0.66198  Biso   1.000  O
  O30      1.0000 0.30123  0.22407  0.71808  Biso   1.000  O
  C43      1.0000 0.18123  0.23447  0.71706  Biso   1.000  C
  C44      1.0000 0.19903  0.26897  0.75670  Biso   1.000  C
  H15      1.0000 0.24773  0.28047  0.76957  Biso   1.000  H
  C45      1.0000 0.24003  0.21317  0.69759  Biso   1.000  C
  O31      1.0000 0.62790  0.11070  0.99531  Biso   1.000  O
  O32      1.0000 0.58950  0.03210  0.05141  Biso   1.000  O
  C46      1.0000 0.71990  0.15210  0.05039  Biso   1.000  C
  C47      1.0000 0.73660  0.13430  0.09003  Biso   1.000  C
  H16      1.0000 0.69940  0.08560  0.10290  Biso   1.000  H
  C48      1.0000 0.63980  0.09330  0.03092  Biso   1.000  C
  O33      1.0000 0.29457  0.44403  0.32864  Biso   1.000  O
  O34      1.0000 0.25617  0.36543  0.38474  Biso   1.000  O
  C49      1.0000 0.38657  0.48543  0.38372  Biso   1.000  C
  C50      1.0000 0.40327  0.46763  0.42336  Biso   1.000  C
  H17      1.0000 0.36607  0.41893  0.43623  Biso   1.000  H
  C51      1.0000 0.30647  0.42663  0.36425  Biso   1.000  C
  O35      1.0000 0.96123  0.77737  0.66198  Biso   1.000  O
  O36      1.0000 0.92283  0.69877  0.71808  Biso   1.000  O
  C52      1.0000 0.05323  0.81877  0.71706  Biso   1.000  C
  C53      1.0000 0.06993  0.80097  0.75670  Biso   1.000  C
  H18      1.0000 0.03273  0.75227  0.76957  Biso   1.000  H
  C54      1.0000 0.97313  0.75997  0.69759  Biso   1.000  C
  O37      1.0000 0.62790  0.51720  0.99531  Biso   1.000  O
  O38      1.0000 0.58950  0.55740  0.05141  Biso   1.000  O
  C55      1.0000 0.71990  0.56780  0.05039  Biso   1.000  C
  C56      1.0000 0.73660  0.60230  0.09003  Biso   1.000  C
  H19      1.0000 0.69940  0.61380  0.10290  Biso   1.000  H
  C57      1.0000 0.63980  0.54650  0.03092  Biso   1.000  C
  O39      1.0000 0.29457  0.85053  0.32864  Biso   1.000  O
  O40      1.0000 0.25617  0.89073  0.38474  Biso   1.000  O
  C58      1.0000 0.38657  0.90113  0.38372  Biso   1.000  C
  C59      1.0000 0.40327  0.93563  0.42336  Biso   1.000  C
  H20      1.0000 0.36607  0.94713  0.43623  Biso   1.000  H
  C60      1.0000 0.30647  0.87983  0.36425  Biso   1.000  C
  O41      1.0000 0.96123  0.18387  0.66198  Biso   1.000  O
  O42      1.0000 0.92283  0.22407  0.71808  Biso   1.000  O
  C61      1.0000 0.05323  0.23447  0.71706  Biso   1.000  C
  C62      1.0000 0.06993  0.26897  0.75670  Biso   1.000  C
  H21      1.0000 0.03273  0.28047  0.76957  Biso   1.000  H
  C63      1.0000 0.97313  0.21317  0.69759  Biso   1.000  C
  O43      1.0000 0.48280  0.11070  0.99531  Biso   1.000  O
  O44      1.0000 0.44260  0.03210  0.05141  Biso   1.000  O
  C64      1.0000 0.43220  0.15210  0.05039  Biso   1.000  C
  C65      1.0000 0.39770  0.13430  0.09003  Biso   1.000  C
  H22      1.0000 0.38620  0.08560  0.10290  Biso   1.000  H
  C66      1.0000 0.45350  0.09330  0.03092  Biso   1.000  C
  O45      1.0000 0.14947  0.44403  0.32864  Biso   1.000  O
  O46      1.0000 0.10927  0.36543  0.38474  Biso   1.000  O
  C67      1.0000 0.09887  0.48543  0.38372  Biso   1.000  C
  C68      1.0000 0.06437  0.46763  0.42336  Biso   1.000  C
  H23      1.0000 0.05287  0.41893  0.43623  Biso   1.000  H
  C69      1.0000 0.12017  0.42663  0.36425  Biso   1.000  C
  O47      1.0000 0.81613  0.77737  0.66198  Biso   1.000  O
  O48      1.0000 0.77593  0.69877  0.71808  Biso   1.000  O
  C70      1.0000 0.76553  0.81877  0.71706  Biso   1.000  C
  C71      1.0000 0.73103  0.80097  0.75670  Biso   1.000  C
  H24      1.0000 0.71953  0.75227  0.76957  Biso   1.000  H
  C72      1.0000 0.78683  0.75997  0.69759  Biso   1.000  C
  O49      1.0000 0.88930  0.37210  0.99531  Biso   1.000  O
  O50      1.0000 0.96790  0.41050  0.05141  Biso   1.000  O
  C73      1.0000 0.84790  0.28010  0.05039  Biso   1.000  C
  C74      1.0000 0.86570  0.26340  0.09003  Biso   1.000  C
  H25      1.0000 0.91440  0.30060  0.10290  Biso   1.000  H
  C75      1.0000 0.90670  0.36020  0.03092  Biso   1.000  C
  O51      1.0000 0.55597  0.70543  0.32864  Biso   1.000  O
  O52      1.0000 0.63457  0.74383  0.38474  Biso   1.000  O
  C76      1.0000 0.51457  0.61343  0.38372  Biso   1.000  C
  C77      1.0000 0.53237  0.59673  0.42336  Biso   1.000  C
  H26      1.0000 0.58107  0.63393  0.43623  Biso   1.000  H
  C78      1.0000 0.57337  0.69353  0.36425  Biso   1.000  C
  O53      1.0000 0.22263  0.03877  0.66198  Biso   1.000  O
  O54      1.0000 0.30123  0.07717  0.71808  Biso   1.000  O
  C79      1.0000 0.18123  0.94677  0.71706  Biso   1.000  C
  C80      1.0000 0.19903  0.93007  0.75670  Biso   1.000  C
  H27      1.0000 0.24773  0.96727  0.76957  Biso   1.000  H
  C81      1.0000 0.24003  0.02687  0.69759  Biso   1.000  C
  O55      1.0000 0.51720  0.62790  0.00469  Biso   1.000  O
  O56      1.0000 0.55740  0.58950  0.94859  Biso   1.000  O
  C82      1.0000 0.56780  0.71990  0.94961  Biso   1.000  C
  C83      1.0000 0.60230  0.73660  0.90997  Biso   1.000  C
  H28      1.0000 0.61380  0.69940  0.89710  Biso   1.000  H
  C84      1.0000 0.54650  0.63980  0.96908  Biso   1.000  C
  O57      1.0000 0.18387  0.96123  0.33802  Biso   1.000  O
  O58      1.0000 0.22407  0.92283  0.28192  Biso   1.000  O
  C85      1.0000 0.23447  0.05323  0.28294  Biso   1.000  C
  C86      1.0000 0.26897  0.06993  0.24330  Biso   1.000  C
  H29      1.0000 0.28047  0.03273  0.23043  Biso   1.000  H
  C87      1.0000 0.21317  0.97313  0.30241  Biso   1.000  C
  O59      1.0000 0.85053  0.29457  0.67136  Biso   1.000  O
  O60      1.0000 0.89073  0.25617  0.61526  Biso   1.000  O
  C88      1.0000 0.90113  0.38657  0.61628  Biso   1.000  C
  C89      1.0000 0.93563  0.40327  0.57664  Biso   1.000  C
  H30      1.0000 0.94713  0.36607  0.56377  Biso   1.000  H
  C90      1.0000 0.87983  0.30647  0.63575  Biso   1.000  C
  O61      1.0000 0.11070  0.48280  0.00469  Biso   1.000  O
  O62      1.0000 0.03210  0.44260  0.94859  Biso   1.000  O
  C91      1.0000 0.15210  0.43220  0.94961  Biso   1.000  C
  C92      1.0000 0.13430  0.39770  0.90997  Biso   1.000  C
  H31      1.0000 0.08560  0.38620  0.89710  Biso   1.000  H
  C93      1.0000 0.09330  0.45350  0.96908  Biso   1.000  C
  O63      1.0000 0.77737  0.81613  0.33802  Biso   1.000  O
  O64      1.0000 0.69877  0.77593  0.28192  Biso   1.000  O
  C94      1.0000 0.81877  0.76553  0.28294  Biso   1.000  C
  C95      1.0000 0.80097  0.73103  0.24330  Biso   1.000  C
  H32      1.0000 0.75227  0.71953  0.23043  Biso   1.000  H
  C96      1.0000 0.75997  0.78683  0.30241  Biso   1.000  C
  O65      1.0000 0.44403  0.14947  0.67136  Biso   1.000  O
  O66      1.0000 0.36543  0.10927  0.61526  Biso   1.000  O
  C97      1.0000 0.48543  0.09887  0.61628  Biso   1.000  C
  C98      1.0000 0.46763  0.06437  0.57664  Biso   1.000  C
  H33      1.0000 0.41893  0.05287  0.56377  Biso   1.000  H
  C99      1.0000 0.42663  0.12017  0.63575  Biso   1.000  C
  O67      1.0000 0.37210  0.88930  0.00469  Biso   1.000  O
  O68      1.0000 0.41050  0.96790  0.94859  Biso   1.000  O
  C100     1.0000 0.28010  0.84790  0.94961  Biso   1.000  C
  C101     1.0000 0.26340  0.86570  0.90997  Biso   1.000  C
  H34      1.0000 0.30060  0.91440  0.89710  Biso   1.000  H
  C102     1.0000 0.36020  0.90670  0.96908  Biso   1.000  C
  O69      1.0000 0.03877  0.22263  0.33802  Biso   1.000  O
  O70      1.0000 0.07717  0.30123  0.28192  Biso   1.000  O
  C103     1.0000 0.94677  0.18123  0.28294  Biso   1.000  C
  C104     1.0000 0.93007  0.19903  0.24330  Biso   1.000  C
  H35      1.0000 0.96727  0.24773  0.23043  Biso   1.000  H
  C105     1.0000 0.02687  0.24003  0.30241  Biso   1.000  C
  O71      1.0000 0.70543  0.55597  0.67136  Biso   1.000  O
  O72      1.0000 0.74383  0.63457  0.61526  Biso   1.000  O
  C106     1.0000 0.61343  0.51457  0.61628  Biso   1.000  C
  C107     1.0000 0.59673  0.53237  0.57664  Biso   1.000  C
  H36      1.0000 0.63393  0.58107  0.56377  Biso   1.000  H
  C108     1.0000 0.69353  0.57337  0.63575  Biso   1.000  C
  Cu1      1.0000 0.47692  0.52308  0.03342  Biso   1.000  Cu
  O73      1.0000 0.45000  0.55000  0.09330  Biso   1.000  O
  O74      1.0000 0.43340  0.56660  0.08370  Biso   1.000  O
  Cu2      1.0000 0.14359  0.85641  0.36675  Biso   1.000  Cu
  O75      1.0000 0.11667  0.88333  0.42663  Biso   1.000  O
  O76      1.0000 0.10007  0.89993  0.41703  Biso   1.000  O
  Cu3      1.0000 0.81025  0.18975  0.70009  Biso   1.000  Cu
  O77      1.0000 0.78333  0.21667  0.75997  Biso   1.000  O
  O78      1.0000 0.76673  0.23327  0.75037  Biso   1.000  O
  Cu4      1.0000 0.47692  0.95384  0.03342  Biso   1.000  Cu
  O79      1.0000 0.45000  0.90000  0.09330  Biso   1.000  O
  O80      1.0000 0.43340  0.86680  0.08370  Biso   1.000  O
  Cu5      1.0000 0.14359  0.28717  0.36675  Biso   1.000  Cu
  O81      1.0000 0.11667  0.23333  0.42663  Biso   1.000  O
  O82      1.0000 0.10007  0.20013  0.41703  Biso   1.000  O
  Cu6      1.0000 0.81025  0.62051  0.70009  Biso   1.000  Cu
  O83      1.0000 0.78333  0.56667  0.75997  Biso   1.000  O
  O84      1.0000 0.76673  0.53347  0.75037  Biso   1.000  O
  Cu7      1.0000 0.04616  0.52308  0.03342  Biso   1.000  Cu
  O85      1.0000 0.10000  0.55000  0.09330  Biso   1.000  O
  O86      1.0000 0.13320  0.56660  0.08370  Biso   1.000  O
  Cu8      1.0000 0.71283  0.85641  0.36675  Biso   1.000  Cu
  O87      1.0000 0.76667  0.88333  0.42663  Biso   1.000  O
  O88      1.0000 0.79987  0.89993  0.41703  Biso   1.000  O
  Cu9      1.0000 0.37949  0.18975  0.70009  Biso   1.000  Cu
  O89      1.0000 0.43333  0.21667  0.75997  Biso   1.000  O
  O90      1.0000 0.46653  0.23327  0.75037  Biso   1.000  O
  Cu10     1.0000 0.52308  0.47692  0.96658  Biso   1.000  Cu
  O91      1.0000 0.55000  0.45000  0.90670  Biso   1.000  O
  O92      1.0000 0.56660  0.43340  0.91630  Biso   1.000  O
  Cu11     1.0000 0.18975  0.81025  0.29991  Biso   1.000  Cu
  O93      1.0000 0.21667  0.78333  0.24003  Biso   1.000  O
  O94      1.0000 0.23327  0.76673  0.24963  Biso   1.000  O
  Cu12     1.0000 0.85641  0.14359  0.63325  Biso   1.000  Cu
  O95      1.0000 0.88333  0.11667  0.57337  Biso   1.000  O
  O96      1.0000 0.89993  0.10007  0.58297  Biso   1.000  O
  Cu13     1.0000 0.95384  0.47692  0.96658  Biso   1.000  Cu
  O97      1.0000 0.90000  0.45000  0.90670  Biso   1.000  O
  O98      1.0000 0.86680  0.43340  0.91630  Biso   1.000  O
  Cu14     1.0000 0.62051  0.81025  0.29991  Biso   1.000  Cu
  O99      1.0000 0.56667  0.78333  0.24003  Biso   1.000  O
  O100     1.0000 0.53347  0.76673  0.24963  Biso   1.000  O
  Cu15     1.0000 0.28717  0.14359  0.63325  Biso   1.000  Cu
  O101     1.0000 0.23333  0.11667  0.57337  Biso   1.000  O
  O102     1.0000 0.20013  0.10007  0.58297  Biso   1.000  O
  Cu16     1.0000 0.52308  0.04616  0.96658  Biso   1.000  Cu
  O103     1.0000 0.55000  0.10000  0.90670  Biso   1.000  O
  O104     1.0000 0.56660  0.13320  0.91630  Biso   1.000  O
  Cu17     1.0000 0.18975  0.37949  0.29991  Biso   1.000  Cu
  O105     1.0000 0.21667  0.43333  0.24003  Biso   1.000  O
  O106     1.0000 0.23327  0.46653  0.24963  Biso   1.000  O
  Cu18     1.0000 0.85641  0.71283  0.63325  Biso   1.000  Cu
  O107     1.0000 0.88333  0.76667  0.57337  Biso   1.000  O
  O108     1.0000 0.89993  0.79987  0.58297  Biso   1.000  O
  C109     1.0000 0.22455  0.44910  0.96860  Biso   1.000  C
  H37      1.0000 0.23605  0.47210  0.99460  Biso   1.000  H
  C110     1.0000 0.19055  0.38110  0.89020  Biso   1.000  C
  C111     1.0000 0.17285  0.34570  0.84970  Biso   1.000  C
  C112     1.0000 0.89122  0.78243  0.30193  Biso   1.000  C
  H38      1.0000 0.90272  0.80543  0.32793  Biso   1.000  H
  C113     1.0000 0.85722  0.71443  0.22353  Biso   1.000  C
  C114     1.0000 0.83952  0.67903  0.18303  Biso   1.000  C
  C115     1.0000 0.55788  0.11577  0.63527  Biso   1.000  C
  H39      1.0000 0.56938  0.13877  0.66127  Biso   1.000  H
  C116     1.0000 0.52388  0.04777  0.55687  Biso   1.000  C
  C117     1.0000 0.50618  0.01237  0.51637  Biso   1.000  C
  C118     1.0000 0.55090  0.77545  0.96860  Biso   1.000  C
  H40      1.0000 0.52790  0.76395  0.99460  Biso   1.000  H
  C119     1.0000 0.61890  0.80945  0.89020  Biso   1.000  C
  C120     1.0000 0.65430  0.82715  0.84970  Biso   1.000  C
  C121     1.0000 0.21757  0.10878  0.30193  Biso   1.000  C
  H41      1.0000 0.19457  0.09728  0.32793  Biso   1.000  H
  C122     1.0000 0.28557  0.14278  0.22353  Biso   1.000  C
  C123     1.0000 0.32097  0.16048  0.18303  Biso   1.000  C
  C124     1.0000 0.88423  0.44212  0.63527  Biso   1.000  C
  H42      1.0000 0.86123  0.43062  0.66127  Biso   1.000  H
  C125     1.0000 0.95223  0.47612  0.55687  Biso   1.000  C
  C126     1.0000 0.98763  0.49382  0.51637  Biso   1.000  C
  C127     1.0000 0.22455  0.77545  0.96860  Biso   1.000  C
  H43      1.0000 0.23605  0.76395  0.99460  Biso   1.000  H
  C128     1.0000 0.19055  0.80945  0.89020  Biso   1.000  C
  C129     1.0000 0.17285  0.82715  0.84970  Biso   1.000  C
  C130     1.0000 0.89122  0.10878  0.30193  Biso   1.000  C
  H44      1.0000 0.90272  0.09728  0.32793  Biso   1.000  H
  C131     1.0000 0.85722  0.14278  0.22353  Biso   1.000  C
  C132     1.0000 0.83952  0.16048  0.18303  Biso   1.000  C
  C133     1.0000 0.55788  0.44212  0.63527  Biso   1.000  C
  H45      1.0000 0.56938  0.43062  0.66127  Biso   1.000  H
  C134     1.0000 0.52388  0.47612  0.55687  Biso   1.000  C
  C135     1.0000 0.50618  0.49382  0.51637  Biso   1.000  C
  C136     1.0000 0.44910  0.22455  0.03140  Biso   1.000  C
  H46      1.0000 0.47210  0.23605  0.00540  Biso   1.000  H
  C137     1.0000 0.38110  0.19055  0.10980  Biso   1.000  C
  C138     1.0000 0.34570  0.17285  0.15030  Biso   1.000  C
  C139     1.0000 0.11577  0.55788  0.36473  Biso   1.000  C
  H47      1.0000 0.13877  0.56938  0.33873  Biso   1.000  H
  C140     1.0000 0.04777  0.52388  0.44313  Biso   1.000  C
  C141     1.0000 0.01237  0.50618  0.48363  Biso   1.000  C
  C142     1.0000 0.78243  0.89122  0.69807  Biso   1.000  C
  H48      1.0000 0.80543  0.90272  0.67207  Biso   1.000  H
  C143     1.0000 0.71443  0.85722  0.77647  Biso   1.000  C
  C144     1.0000 0.67903  0.83952  0.81697  Biso   1.000  C
  C145     1.0000 0.77545  0.55090  0.03140  Biso   1.000  C
  H49      1.0000 0.76395  0.52790  0.00540  Biso   1.000  H
  C146     1.0000 0.80945  0.61890  0.10980  Biso   1.000  C
  C147     1.0000 0.82715  0.65430  0.15030  Biso   1.000  C
  C148     1.0000 0.44212  0.88423  0.36473  Biso   1.000  C
  H50      1.0000 0.43062  0.86123  0.33873  Biso   1.000  H
  C149     1.0000 0.47612  0.95223  0.44313  Biso   1.000  C
  C150     1.0000 0.49382  0.98763  0.48363  Biso   1.000  C
  C151     1.0000 0.10878  0.21757  0.69807  Biso   1.000  C
  H51      1.0000 0.09728  0.19457  0.67207  Biso   1.000  H
  C152     1.0000 0.14278  0.28557  0.77647  Biso   1.000  C
  C153     1.0000 0.16048  0.32097  0.81697  Biso   1.000  C
  C154     1.0000 0.77545  0.22455  0.03140  Biso   1.000  C
  H52      1.0000 0.76395  0.23605  0.00540  Biso   1.000  H
  C155     1.0000 0.80945  0.19055  0.10980  Biso   1.000  C
  C156     1.0000 0.82715  0.17285  0.15030  Biso   1.000  C
  C157     1.0000 0.44212  0.55788  0.36473  Biso   1.000  C
  H53      1.0000 0.43062  0.56938  0.33873  Biso   1.000  H
  C158     1.0000 0.47612  0.52388  0.44313  Biso   1.000  C
  C159     1.0000 0.49382  0.50618  0.48363  Biso   1.000  C
  C160     1.0000 0.10878  0.89122  0.69807  Biso   1.000  C
  H54      1.0000 0.09728  0.90272  0.67207  Biso   1.000  H
  C161     1.0000 0.14278  0.85722  0.77647  Biso   1.000  C
  C162     1.0000 0.16048  0.83952  0.81697  Biso   1.000  C
