data_image0
_cell_length_a       40.077
_cell_length_b       21.789
_cell_length_c       9.1437
_cell_angle_alpha    90
_cell_angle_beta     101.28
_cell_angle_gamma    90

_symmetry_space_group_name_H-M    "P 1"
_symmetry_int_tables_number       1

loop_
  _symmetry_equiv_pos_as_xyz
  'x, y, z'

loop_
  _atom_site_label
  _atom_site_occupancy
  _atom_site_fract_x
  _atom_site_fract_y
  _atom_site_fract_z
  _atom_site_thermal_displace_type
  _atom_site_B_iso_or_equiv
  _atom_site_type_symbol
  Pb1      1.0000 0.33043  0.00836  0.06243  Biso   1.000  Pb
  K1       1.0000 0.29095  0.87030  0.84850  Biso   1.000  K
  O1       1.0000 0.35920  0.94680  0.26800  Biso   1.000  O
  O2       1.0000 0.34030  0.87450  0.10700  Biso   1.000  O
  O3       1.0000 0.36670  0.78920  0.29140  Biso   1.000  O
  O4       1.0000 0.21390  0.48580  0.79650  Biso   1.000  O
  O5       1.0000 0.23620  0.54970  0.97130  Biso   1.000  O
  O6       1.0000 0.29460  0.54980  0.88350  Biso   1.000  O
  O7       1.0000 0.34870  0.07610  0.26110  Biso   1.000  O
  O8       1.0000 0.39050  0.07900  0.14480  Biso   1.000  O
  O9       1.0000 0.42120  0.16450  0.33400  Biso   1.000  O
  C1       1.0000 0.36000  0.89480  0.21800  Biso   1.000  C
  C2       1.0000 0.37950  0.84980  0.32540  Biso   1.000  C
  H1       1.0000 0.40340  0.85130  0.31960  Biso   1.000  H
  H2       1.0000 0.37750  0.86050  0.42620  Biso   1.000  H
  C3       1.0000 0.38190  0.74200  0.38790  Biso   1.000  C
  C4       1.0000 0.40650  0.75120  0.51400  Biso   1.000  C
  H3       1.0000 0.41510  0.79020  0.53990  Biso   1.000  H
  C5       1.0000 0.41810  0.70060  0.60120  Biso   1.000  C
  H4       1.0000 0.43430  0.70710  0.68740  Biso   1.000  H
  C6       1.0000 0.40720  0.64080  0.56870  Biso   1.000  C
  C7       1.0000 0.38270  0.63460  0.43890  Biso   1.000  C
  H5       1.0000 0.37440  0.59560  0.41130  Biso   1.000  H
  C8       1.0000 0.36990  0.68370  0.34830  Biso   1.000  C
  H6       1.0000 0.35360  0.67750  0.26240  Biso   1.000  H
  C9       1.0000 0.23780  0.51610  0.86530  Biso   1.000  C
  C10      1.0000 0.26990  0.50810  0.80580  Biso   1.000  C
  H7       1.0000 0.26560  0.51670  0.69970  Biso   1.000  H
  H8       1.0000 0.27800  0.46620  0.82140  Biso   1.000  H
  C11      1.0000 0.32540  0.55250  0.83170  Biso   1.000  C
  C12      1.0000 0.33450  0.51190  0.73180  Biso   1.000  C
  H9       1.0000 0.32060  0.47900  0.69520  Biso   1.000  H
  C13      1.0000 0.36540  0.52120  0.68700  Biso   1.000  C
  H10      1.0000 0.37210  0.49310  0.62180  Biso   1.000  H
  C14      1.0000 0.38650  0.57030  0.73490  Biso   1.000  C
  C15      1.0000 0.37580  0.60980  0.83590  Biso   1.000  C
  H11      1.0000 0.38960  0.64290  0.87180  Biso   1.000  H
  C16      1.0000 0.34550  0.60220  0.88590  Biso   1.000  C
  H12      1.0000 0.33900  0.62950  0.95330  Biso   1.000  H
  C17      1.0000 0.41700  0.58590  0.66640  Biso   1.000  C
  C18      1.0000 0.44740  0.59930  0.79370  Biso   1.000  C
  H13      1.0000 0.46610  0.61430  0.75270  Biso   1.000  H
  H14      1.0000 0.45400  0.56230  0.84870  Biso   1.000  H
  H15      1.0000 0.44100  0.62970  0.85910  Biso   1.000  H
  C19      1.0000 0.42750  0.53180  0.57770  Biso   1.000  C
  H16      1.0000 0.41040  0.52520  0.48980  Biso   1.000  H
  H17      1.0000 0.42980  0.49550  0.63840  Biso   1.000  H
  H18      1.0000 0.44880  0.54090  0.54950  Biso   1.000  H
  C20      1.0000 0.37500  0.09900  0.24000  Biso   1.000  C
  C21      1.0000 0.38720  0.14940  0.34500  Biso   1.000  C
  H19      1.0000 0.37280  0.18530  0.32310  Biso   1.000  H
  H20      1.0000 0.38650  0.13580  0.44520  Biso   1.000  H
  C22      1.0000 0.43570  0.20640  0.44860  Biso   1.000  C
  C23      1.0000 0.42040  0.24290  0.54050  Biso   1.000  C
  H21      1.0000 0.39720  0.24030  0.53930  Biso   1.000  H
  C24      1.0000 0.44130  0.28380  0.63540  Biso   1.000  C
  H22      1.0000 0.43130  0.30970  0.69550  Biso   1.000  H
  C25      1.0000 0.47620  0.28750  0.64380  Biso   1.000  C
  C26      1.0000 0.49030  0.25060  0.54730  Biso   1.000  C
  H23      1.0000 0.51370  0.25190  0.55110  Biso   1.000  H
  C27      1.0000 0.47040  0.21210  0.44590  Biso   1.000  C
  H24      1.0000 0.47990  0.19030  0.37680  Biso   1.000  H
  C28      1.0000 0.48060  0.36920  0.84080  Biso   1.000  C
  H25      1.0000 0.46670  0.34420  0.89160  Biso   1.000  H
  H26      1.0000 0.46640  0.39710  0.77500  Biso   1.000  H
  H27      1.0000 0.49650  0.39200  0.91260  Biso   1.000  H
  O10      1.0000 0.37970  0.93240  0.17700  Biso   1.000  O
  O11      1.0000 0.33020  0.88900  0.16600  Biso   1.000  O
  O12      1.0000 0.37200  0.08400  0.23000  Biso   1.000  O
  O13      1.0000 0.32610  0.13790  0.16000  Biso   1.000  O
  O14      1.0000 0.40860  0.16700  0.38300  Biso   1.000  O
  C29      1.0000 0.35400  0.13000  0.23500  Biso   1.000  C
  C30      1.0000 0.37300  0.17800  0.33700  Biso   1.000  C
  H28      1.0000 0.36970  0.21710  0.28750  Biso   1.000  H
  H29      1.0000 0.36300  0.18010  0.42560  Biso   1.000  H
  Pb2      1.0000 0.83043  0.50836  0.06243  Biso   1.000  Pb
  K2       1.0000 0.79095  0.37030  0.84850  Biso   1.000  K
  O15      1.0000 0.85920  0.44680  0.26800  Biso   1.000  O
  O16      1.0000 0.84030  0.37450  0.10700  Biso   1.000  O
  O17      1.0000 0.86670  0.28920  0.29140  Biso   1.000  O
  O18      1.0000 0.71390  0.98580  0.79650  Biso   1.000  O
  O19      1.0000 0.73620  0.04970  0.97130  Biso   1.000  O
  O20      1.0000 0.79460  0.04980  0.88350  Biso   1.000  O
  O21      1.0000 0.84870  0.57610  0.26110  Biso   1.000  O
  O22      1.0000 0.89050  0.57900  0.14480  Biso   1.000  O
  O23      1.0000 0.92120  0.66450  0.33400  Biso   1.000  O
  C31      1.0000 0.86000  0.39480  0.21800  Biso   1.000  C
  C32      1.0000 0.87950  0.34980  0.32540  Biso   1.000  C
  H30      1.0000 0.90340  0.35130  0.31960  Biso   1.000  H
  H31      1.0000 0.87750  0.36050  0.42620  Biso   1.000  H
  C33      1.0000 0.88190  0.24200  0.38790  Biso   1.000  C
  C34      1.0000 0.90650  0.25120  0.51400  Biso   1.000  C
  H32      1.0000 0.91510  0.29020  0.53990  Biso   1.000  H
  C35      1.0000 0.91810  0.20060  0.60120  Biso   1.000  C
  H33      1.0000 0.93430  0.20710  0.68740  Biso   1.000  H
  C36      1.0000 0.90720  0.14080  0.56870  Biso   1.000  C
  C37      1.0000 0.88270  0.13460  0.43890  Biso   1.000  C
  H34      1.0000 0.87440  0.09560  0.41130  Biso   1.000  H
  C38      1.0000 0.86990  0.18370  0.34830  Biso   1.000  C
  H35      1.0000 0.85360  0.17750  0.26240  Biso   1.000  H
  C39      1.0000 0.73780  0.01610  0.86530  Biso   1.000  C
  C40      1.0000 0.76990  0.00810  0.80580  Biso   1.000  C
  H36      1.0000 0.76560  0.01670  0.69970  Biso   1.000  H
  H37      1.0000 0.77800  0.96620  0.82140  Biso   1.000  H
  C41      1.0000 0.82540  0.05250  0.83170  Biso   1.000  C
  C42      1.0000 0.83450  0.01190  0.73180  Biso   1.000  C
  H38      1.0000 0.82060  0.97900  0.69520  Biso   1.000  H
  C43      1.0000 0.86540  0.02120  0.68700  Biso   1.000  C
  H39      1.0000 0.87210  0.99310  0.62180  Biso   1.000  H
  C44      1.0000 0.88650  0.07030  0.73490  Biso   1.000  C
  C45      1.0000 0.87580  0.10980  0.83590  Biso   1.000  C
  H40      1.0000 0.88960  0.14290  0.87180  Biso   1.000  H
  C46      1.0000 0.84550  0.10220  0.88590  Biso   1.000  C
  H41      1.0000 0.83900  0.12950  0.95330  Biso   1.000  H
  C47      1.0000 0.91700  0.08590  0.66640  Biso   1.000  C
  C48      1.0000 0.94740  0.09930  0.79370  Biso   1.000  C
  H42      1.0000 0.96610  0.11430  0.75270  Biso   1.000  H
  H43      1.0000 0.95400  0.06230  0.84870  Biso   1.000  H
  H44      1.0000 0.94100  0.12970  0.85910  Biso   1.000  H
  C49      1.0000 0.92750  0.03180  0.57770  Biso   1.000  C
  H45      1.0000 0.91040  0.02520  0.48980  Biso   1.000  H
  H46      1.0000 0.92980  0.99550  0.63840  Biso   1.000  H
  H47      1.0000 0.94880  0.04090  0.54950  Biso   1.000  H
  C50      1.0000 0.87500  0.59900  0.24000  Biso   1.000  C
  C51      1.0000 0.88720  0.64940  0.34500  Biso   1.000  C
  H48      1.0000 0.87280  0.68530  0.32310  Biso   1.000  H
  H49      1.0000 0.88650  0.63580  0.44520  Biso   1.000  H
  C52      1.0000 0.93570  0.70640  0.44860  Biso   1.000  C
  C53      1.0000 0.92040  0.74290  0.54050  Biso   1.000  C
  H50      1.0000 0.89720  0.74030  0.53930  Biso   1.000  H
  C54      1.0000 0.94130  0.78380  0.63540  Biso   1.000  C
  H51      1.0000 0.93130  0.80970  0.69550  Biso   1.000  H
  C55      1.0000 0.97620  0.78750  0.64380  Biso   1.000  C
  C56      1.0000 0.99030  0.75060  0.54730  Biso   1.000  C
  H52      1.0000 0.01370  0.75190  0.55110  Biso   1.000  H
  C57      1.0000 0.97040  0.71210  0.44590  Biso   1.000  C
  H53      1.0000 0.97990  0.69030  0.37680  Biso   1.000  H
  C58      1.0000 0.98060  0.86920  0.84080  Biso   1.000  C
  H54      1.0000 0.96670  0.84420  0.89160  Biso   1.000  H
  H55      1.0000 0.96640  0.89710  0.77500  Biso   1.000  H
  H56      1.0000 0.99650  0.89200  0.91260  Biso   1.000  H
  O24      1.0000 0.87970  0.43240  0.17700  Biso   1.000  O
  O25      1.0000 0.83020  0.38900  0.16600  Biso   1.000  O
  O26      1.0000 0.87200  0.58400  0.23000  Biso   1.000  O
  O27      1.0000 0.82610  0.63790  0.16000  Biso   1.000  O
  O28      1.0000 0.90860  0.66700  0.38300  Biso   1.000  O
  C59      1.0000 0.85400  0.63000  0.23500  Biso   1.000  C
  C60      1.0000 0.87300  0.67800  0.33700  Biso   1.000  C
  H57      1.0000 0.86970  0.71710  0.28750  Biso   1.000  H
  H58      1.0000 0.86300  0.68010  0.42560  Biso   1.000  H
  Pb3      1.0000 0.66957  0.00836  0.43757  Biso   1.000  Pb
  K3       1.0000 0.70905  0.87030  0.65150  Biso   1.000  K
  O29      1.0000 0.64080  0.94680  0.23200  Biso   1.000  O
  O30      1.0000 0.65970  0.87450  0.39300  Biso   1.000  O
  O31      1.0000 0.63330  0.78920  0.20860  Biso   1.000  O
  O32      1.0000 0.78610  0.48580  0.70350  Biso   1.000  O
  O33      1.0000 0.76380  0.54970  0.52870  Biso   1.000  O
  O34      1.0000 0.70540  0.54980  0.61650  Biso   1.000  O
  O35      1.0000 0.65130  0.07610  0.23890  Biso   1.000  O
  O36      1.0000 0.60950  0.07900  0.35520  Biso   1.000  O
  O37      1.0000 0.57880  0.16450  0.16600  Biso   1.000  O
  C61      1.0000 0.64000  0.89480  0.28200  Biso   1.000  C
  C62      1.0000 0.62050  0.84980  0.17460  Biso   1.000  C
  H59      1.0000 0.59660  0.85130  0.18040  Biso   1.000  H
  H60      1.0000 0.62250  0.86050  0.07380  Biso   1.000  H
  C63      1.0000 0.61810  0.74200  0.11210  Biso   1.000  C
  C64      1.0000 0.59350  0.75120  0.98600  Biso   1.000  C
  H61      1.0000 0.58490  0.79020  0.96010  Biso   1.000  H
  C65      1.0000 0.58190  0.70060  0.89880  Biso   1.000  C
  H62      1.0000 0.56570  0.70710  0.81260  Biso   1.000  H
  C66      1.0000 0.59280  0.64080  0.93130  Biso   1.000  C
  C67      1.0000 0.61730  0.63460  0.06110  Biso   1.000  C
  H63      1.0000 0.62560  0.59560  0.08870  Biso   1.000  H
  C68      1.0000 0.63010  0.68370  0.15170  Biso   1.000  C
  H64      1.0000 0.64640  0.67750  0.23760  Biso   1.000  H
  C69      1.0000 0.76220  0.51610  0.63470  Biso   1.000  C
  C70      1.0000 0.73010  0.50810  0.69420  Biso   1.000  C
  H65      1.0000 0.73440  0.51670  0.80030  Biso   1.000  H
  H66      1.0000 0.72200  0.46620  0.67860  Biso   1.000  H
  C71      1.0000 0.67460  0.55250  0.66830  Biso   1.000  C
  C72      1.0000 0.66550  0.51190  0.76820  Biso   1.000  C
  H67      1.0000 0.67940  0.47900  0.80480  Biso   1.000  H
  C73      1.0000 0.63460  0.52120  0.81300  Biso   1.000  C
  H68      1.0000 0.62790  0.49310  0.87820  Biso   1.000  H
  C74      1.0000 0.61350  0.57030  0.76510  Biso   1.000  C
  C75      1.0000 0.62420  0.60980  0.66410  Biso   1.000  C
  H69      1.0000 0.61040  0.64290  0.62820  Biso   1.000  H
  C76      1.0000 0.65450  0.60220  0.61410  Biso   1.000  C
  H70      1.0000 0.66100  0.62950  0.54670  Biso   1.000  H
  C77      1.0000 0.58300  0.58590  0.83360  Biso   1.000  C
  C78      1.0000 0.55260  0.59930  0.70630  Biso   1.000  C
  H71      1.0000 0.53390  0.61430  0.74730  Biso   1.000  H
  H72      1.0000 0.54600  0.56230  0.65130  Biso   1.000  H
  H73      1.0000 0.55900  0.62970  0.64090  Biso   1.000  H
  C79      1.0000 0.57250  0.53180  0.92230  Biso   1.000  C
  H74      1.0000 0.58960  0.52520  0.01020  Biso   1.000  H
  H75      1.0000 0.57020  0.49550  0.86160  Biso   1.000  H
  H76      1.0000 0.55120  0.54090  0.95050  Biso   1.000  H
  C80      1.0000 0.62500  0.09900  0.26000  Biso   1.000  C
  C81      1.0000 0.61280  0.14940  0.15500  Biso   1.000  C
  H77      1.0000 0.62720  0.18530  0.17690  Biso   1.000  H
  H78      1.0000 0.61350  0.13580  0.05480  Biso   1.000  H
  C82      1.0000 0.56430  0.20640  0.05140  Biso   1.000  C
  C83      1.0000 0.57960  0.24290  0.95950  Biso   1.000  C
  H79      1.0000 0.60280  0.24030  0.96070  Biso   1.000  H
  C84      1.0000 0.55870  0.28380  0.86460  Biso   1.000  C
  H80      1.0000 0.56870  0.30970  0.80450  Biso   1.000  H
  C85      1.0000 0.52380  0.28750  0.85620  Biso   1.000  C
  C86      1.0000 0.50970  0.25060  0.95270  Biso   1.000  C
  H81      1.0000 0.48630  0.25190  0.94890  Biso   1.000  H
  C87      1.0000 0.52960  0.21210  0.05410  Biso   1.000  C
  H82      1.0000 0.52010  0.19030  0.12320  Biso   1.000  H
  C88      1.0000 0.51940  0.36920  0.65920  Biso   1.000  C
  H83      1.0000 0.53330  0.34420  0.60840  Biso   1.000  H
  H84      1.0000 0.53360  0.39710  0.72500  Biso   1.000  H
  H85      1.0000 0.50350  0.39200  0.58740  Biso   1.000  H
  O38      1.0000 0.62030  0.93240  0.32300  Biso   1.000  O
  O39      1.0000 0.66980  0.88900  0.33400  Biso   1.000  O
  O40      1.0000 0.62800  0.08400  0.27000  Biso   1.000  O
  O41      1.0000 0.67390  0.13790  0.34000  Biso   1.000  O
  O42      1.0000 0.59140  0.16700  0.11700  Biso   1.000  O
  C89      1.0000 0.64600  0.13000  0.26500  Biso   1.000  C
  C90      1.0000 0.62700  0.17800  0.16300  Biso   1.000  C
  H86      1.0000 0.63030  0.21710  0.21250  Biso   1.000  H
  H87      1.0000 0.63700  0.18010  0.07440  Biso   1.000  H
  Pb4      1.0000 0.16957  0.50836  0.43757  Biso   1.000  Pb
  K4       1.0000 0.20905  0.37030  0.65150  Biso   1.000  K
  O43      1.0000 0.14080  0.44680  0.23200  Biso   1.000  O
  O44      1.0000 0.15970  0.37450  0.39300  Biso   1.000  O
  O45      1.0000 0.13330  0.28920  0.20860  Biso   1.000  O
  O46      1.0000 0.28610  0.98580  0.70350  Biso   1.000  O
  O47      1.0000 0.26380  0.04970  0.52870  Biso   1.000  O
  O48      1.0000 0.20540  0.04980  0.61650  Biso   1.000  O
  O49      1.0000 0.15130  0.57610  0.23890  Biso   1.000  O
  O50      1.0000 0.10950  0.57900  0.35520  Biso   1.000  O
  O51      1.0000 0.07880  0.66450  0.16600  Biso   1.000  O
  C91      1.0000 0.14000  0.39480  0.28200  Biso   1.000  C
  C92      1.0000 0.12050  0.34980  0.17460  Biso   1.000  C
  H88      1.0000 0.09660  0.35130  0.18040  Biso   1.000  H
  H89      1.0000 0.12250  0.36050  0.07380  Biso   1.000  H
  C93      1.0000 0.11810  0.24200  0.11210  Biso   1.000  C
  C94      1.0000 0.09350  0.25120  0.98600  Biso   1.000  C
  H90      1.0000 0.08490  0.29020  0.96010  Biso   1.000  H
  C95      1.0000 0.08190  0.20060  0.89880  Biso   1.000  C
  H91      1.0000 0.06570  0.20710  0.81260  Biso   1.000  H
  C96      1.0000 0.09280  0.14080  0.93130  Biso   1.000  C
  C97      1.0000 0.11730  0.13460  0.06110  Biso   1.000  C
  H92      1.0000 0.12560  0.09560  0.08870  Biso   1.000  H
  C98      1.0000 0.13010  0.18370  0.15170  Biso   1.000  C
  H93      1.0000 0.14640  0.17750  0.23760  Biso   1.000  H
  C99      1.0000 0.26220  0.01610  0.63470  Biso   1.000  C
  C100     1.0000 0.23010  0.00810  0.69420  Biso   1.000  C
  H94      1.0000 0.23440  0.01670  0.80030  Biso   1.000  H
  H95      1.0000 0.22200  0.96620  0.67860  Biso   1.000  H
  C101     1.0000 0.17460  0.05250  0.66830  Biso   1.000  C
  C102     1.0000 0.16550  0.01190  0.76820  Biso   1.000  C
  H96      1.0000 0.17940  0.97900  0.80480  Biso   1.000  H
  C103     1.0000 0.13460  0.02120  0.81300  Biso   1.000  C
  H97      1.0000 0.12790  0.99310  0.87820  Biso   1.000  H
  C104     1.0000 0.11350  0.07030  0.76510  Biso   1.000  C
  C105     1.0000 0.12420  0.10980  0.66410  Biso   1.000  C
  H98      1.0000 0.11040  0.14290  0.62820  Biso   1.000  H
  C106     1.0000 0.15450  0.10220  0.61410  Biso   1.000  C
  H99      1.0000 0.16100  0.12950  0.54670  Biso   1.000  H
  C107     1.0000 0.08300  0.08590  0.83360  Biso   1.000  C
  C108     1.0000 0.05260  0.09930  0.70630  Biso   1.000  C
  H100     1.0000 0.03390  0.11430  0.74730  Biso   1.000  H
  H101     1.0000 0.04600  0.06230  0.65130  Biso   1.000  H
  H102     1.0000 0.05900  0.12970  0.64090  Biso   1.000  H
  C109     1.0000 0.07250  0.03180  0.92230  Biso   1.000  C
  H103     1.0000 0.08960  0.02520  0.01020  Biso   1.000  H
  H104     1.0000 0.07020  0.99550  0.86160  Biso   1.000  H
  H105     1.0000 0.05120  0.04090  0.95050  Biso   1.000  H
  C110     1.0000 0.12500  0.59900  0.26000  Biso   1.000  C
  C111     1.0000 0.11280  0.64940  0.15500  Biso   1.000  C
  H106     1.0000 0.12720  0.68530  0.17690  Biso   1.000  H
  H107     1.0000 0.11350  0.63580  0.05480  Biso   1.000  H
  C112     1.0000 0.06430  0.70640  0.05140  Biso   1.000  C
  C113     1.0000 0.07960  0.74290  0.95950  Biso   1.000  C
  H108     1.0000 0.10280  0.74030  0.96070  Biso   1.000  H
  C114     1.0000 0.05870  0.78380  0.86460  Biso   1.000  C
  H109     1.0000 0.06870  0.80970  0.80450  Biso   1.000  H
  C115     1.0000 0.02380  0.78750  0.85620  Biso   1.000  C
  C116     1.0000 0.00970  0.75060  0.95270  Biso   1.000  C
  H110     1.0000 0.98630  0.75190  0.94890  Biso   1.000  H
  C117     1.0000 0.02960  0.71210  0.05410  Biso   1.000  C
  H111     1.0000 0.02010  0.69030  0.12320  Biso   1.000  H
  C118     1.0000 0.01940  0.86920  0.65920  Biso   1.000  C
  H112     1.0000 0.03330  0.84420  0.60840  Biso   1.000  H
  H113     1.0000 0.03360  0.89710  0.72500  Biso   1.000  H
  H114     1.0000 0.00350  0.89200  0.58740  Biso   1.000  H
  O52      1.0000 0.12030  0.43240  0.32300  Biso   1.000  O
  O53      1.0000 0.16980  0.38900  0.33400  Biso   1.000  O
  O54      1.0000 0.12800  0.58400  0.27000  Biso   1.000  O
  O55      1.0000 0.17390  0.63790  0.34000  Biso   1.000  O
  O56      1.0000 0.09140  0.66700  0.11700  Biso   1.000  O
  C119     1.0000 0.14600  0.63000  0.26500  Biso   1.000  C
  C120     1.0000 0.12700  0.67800  0.16300  Biso   1.000  C
  H115     1.0000 0.13030  0.71710  0.21250  Biso   1.000  H
  H116     1.0000 0.13700  0.68010  0.07440  Biso   1.000  H
  Pb5      1.0000 0.66957  0.99164  0.93757  Biso   1.000  Pb
  K5       1.0000 0.70905  0.12970  0.15150  Biso   1.000  K
  O57      1.0000 0.64080  0.05320  0.73200  Biso   1.000  O
  O58      1.0000 0.65970  0.12550  0.89300  Biso   1.000  O
  O59      1.0000 0.63330  0.21080  0.70860  Biso   1.000  O
  O60      1.0000 0.78610  0.51420  0.20350  Biso   1.000  O
  O61      1.0000 0.76380  0.45030  0.02870  Biso   1.000  O
  O62      1.0000 0.70540  0.45020  0.11650  Biso   1.000  O
  O63      1.0000 0.65130  0.92390  0.73890  Biso   1.000  O
  O64      1.0000 0.60950  0.92100  0.85520  Biso   1.000  O
  O65      1.0000 0.57880  0.83550  0.66600  Biso   1.000  O
  C121     1.0000 0.64000  0.10520  0.78200  Biso   1.000  C
  C122     1.0000 0.62050  0.15020  0.67460  Biso   1.000  C
  H117     1.0000 0.59660  0.14870  0.68040  Biso   1.000  H
  H118     1.0000 0.62250  0.13950  0.57380  Biso   1.000  H
  C123     1.0000 0.61810  0.25800  0.61210  Biso   1.000  C
  C124     1.0000 0.59350  0.24880  0.48600  Biso   1.000  C
  H119     1.0000 0.58490  0.20980  0.46010  Biso   1.000  H
  C125     1.0000 0.58190  0.29940  0.39880  Biso   1.000  C
  H120     1.0000 0.56570  0.29290  0.31260  Biso   1.000  H
  C126     1.0000 0.59280  0.35920  0.43130  Biso   1.000  C
  C127     1.0000 0.61730  0.36540  0.56110  Biso   1.000  C
  H121     1.0000 0.62560  0.40440  0.58870  Biso   1.000  H
  C128     1.0000 0.63010  0.31630  0.65170  Biso   1.000  C
  H122     1.0000 0.64640  0.32250  0.73760  Biso   1.000  H
  C129     1.0000 0.76220  0.48390  0.13470  Biso   1.000  C
  C130     1.0000 0.73010  0.49190  0.19420  Biso   1.000  C
  H123     1.0000 0.73440  0.48330  0.30030  Biso   1.000  H
  H124     1.0000 0.72200  0.53380  0.17860  Biso   1.000  H
  C131     1.0000 0.67460  0.44750  0.16830  Biso   1.000  C
  C132     1.0000 0.66550  0.48810  0.26820  Biso   1.000  C
  H125     1.0000 0.67940  0.52100  0.30480  Biso   1.000  H
  C133     1.0000 0.63460  0.47880  0.31300  Biso   1.000  C
  H126     1.0000 0.62790  0.50690  0.37820  Biso   1.000  H
  C134     1.0000 0.61350  0.42970  0.26510  Biso   1.000  C
  C135     1.0000 0.62420  0.39020  0.16410  Biso   1.000  C
  H127     1.0000 0.61040  0.35710  0.12820  Biso   1.000  H
  C136     1.0000 0.65450  0.39780  0.11410  Biso   1.000  C
  H128     1.0000 0.66100  0.37050  0.04670  Biso   1.000  H
  C137     1.0000 0.58300  0.41410  0.33360  Biso   1.000  C
  C138     1.0000 0.55260  0.40070  0.20630  Biso   1.000  C
  H129     1.0000 0.53390  0.38570  0.24730  Biso   1.000  H
  H130     1.0000 0.54600  0.43770  0.15130  Biso   1.000  H
  H131     1.0000 0.55900  0.37030  0.14090  Biso   1.000  H
  C139     1.0000 0.57250  0.46820  0.42230  Biso   1.000  C
  H132     1.0000 0.58960  0.47480  0.51020  Biso   1.000  H
  H133     1.0000 0.57020  0.50450  0.36160  Biso   1.000  H
  H134     1.0000 0.55120  0.45910  0.45050  Biso   1.000  H
  C140     1.0000 0.62500  0.90100  0.76000  Biso   1.000  C
  C141     1.0000 0.61280  0.85060  0.65500  Biso   1.000  C
  H135     1.0000 0.62720  0.81470  0.67690  Biso   1.000  H
  H136     1.0000 0.61350  0.86420  0.55480  Biso   1.000  H
  C142     1.0000 0.56430  0.79360  0.55140  Biso   1.000  C
  C143     1.0000 0.57960  0.75710  0.45950  Biso   1.000  C
  H137     1.0000 0.60280  0.75970  0.46070  Biso   1.000  H
  C144     1.0000 0.55870  0.71620  0.36460  Biso   1.000  C
  H138     1.0000 0.56870  0.69030  0.30450  Biso   1.000  H
  C145     1.0000 0.52380  0.71250  0.35620  Biso   1.000  C
  C146     1.0000 0.50970  0.74940  0.45270  Biso   1.000  C
  H139     1.0000 0.48630  0.74810  0.44890  Biso   1.000  H
  C147     1.0000 0.52960  0.78790  0.55410  Biso   1.000  C
  H140     1.0000 0.52010  0.80970  0.62320  Biso   1.000  H
  C148     1.0000 0.51940  0.63080  0.15920  Biso   1.000  C
  H141     1.0000 0.53330  0.65580  0.10840  Biso   1.000  H
  H142     1.0000 0.53360  0.60290  0.22500  Biso   1.000  H
  H143     1.0000 0.50350  0.60800  0.08740  Biso   1.000  H
  O66      1.0000 0.62030  0.06760  0.82300  Biso   1.000  O
  O67      1.0000 0.66980  0.11100  0.83400  Biso   1.000  O
  O68      1.0000 0.62800  0.91600  0.77000  Biso   1.000  O
  O69      1.0000 0.67390  0.86210  0.84000  Biso   1.000  O
  O70      1.0000 0.59140  0.83300  0.61700  Biso   1.000  O
  C149     1.0000 0.64600  0.87000  0.76500  Biso   1.000  C
  C150     1.0000 0.62700  0.82200  0.66300  Biso   1.000  C
  H144     1.0000 0.63030  0.78290  0.71250  Biso   1.000  H
  H145     1.0000 0.63700  0.81990  0.57440  Biso   1.000  H
  Pb6      1.0000 0.16957  0.49164  0.93757  Biso   1.000  Pb
  K6       1.0000 0.20905  0.62970  0.15150  Biso   1.000  K
  O71      1.0000 0.14080  0.55320  0.73200  Biso   1.000  O
  O72      1.0000 0.15970  0.62550  0.89300  Biso   1.000  O
  O73      1.0000 0.13330  0.71080  0.70860  Biso   1.000  O
  O74      1.0000 0.28610  0.01420  0.20350  Biso   1.000  O
  O75      1.0000 0.26380  0.95030  0.02870  Biso   1.000  O
  O76      1.0000 0.20540  0.95020  0.11650  Biso   1.000  O
  O77      1.0000 0.15130  0.42390  0.73890  Biso   1.000  O
  O78      1.0000 0.10950  0.42100  0.85520  Biso   1.000  O
  O79      1.0000 0.07880  0.33550  0.66600  Biso   1.000  O
  C151     1.0000 0.14000  0.60520  0.78200  Biso   1.000  C
  C152     1.0000 0.12050  0.65020  0.67460  Biso   1.000  C
  H146     1.0000 0.09660  0.64870  0.68040  Biso   1.000  H
  H147     1.0000 0.12250  0.63950  0.57380  Biso   1.000  H
  C153     1.0000 0.11810  0.75800  0.61210  Biso   1.000  C
  C154     1.0000 0.09350  0.74880  0.48600  Biso   1.000  C
  H148     1.0000 0.08490  0.70980  0.46010  Biso   1.000  H
  C155     1.0000 0.08190  0.79940  0.39880  Biso   1.000  C
  H149     1.0000 0.06570  0.79290  0.31260  Biso   1.000  H
  C156     1.0000 0.09280  0.85920  0.43130  Biso   1.000  C
  C157     1.0000 0.11730  0.86540  0.56110  Biso   1.000  C
  H150     1.0000 0.12560  0.90440  0.58870  Biso   1.000  H
  C158     1.0000 0.13010  0.81630  0.65170  Biso   1.000  C
  H151     1.0000 0.14640  0.82250  0.73760  Biso   1.000  H
  C159     1.0000 0.26220  0.98390  0.13470  Biso   1.000  C
  C160     1.0000 0.23010  0.99190  0.19420  Biso   1.000  C
  H152     1.0000 0.23440  0.98330  0.30030  Biso   1.000  H
  H153     1.0000 0.22200  0.03380  0.17860  Biso   1.000  H
  C161     1.0000 0.17460  0.94750  0.16830  Biso   1.000  C
  C162     1.0000 0.16550  0.98810  0.26820  Biso   1.000  C
  H154     1.0000 0.17940  0.02100  0.30480  Biso   1.000  H
  C163     1.0000 0.13460  0.97880  0.31300  Biso   1.000  C
  H155     1.0000 0.12790  0.00690  0.37820  Biso   1.000  H
  C164     1.0000 0.11350  0.92970  0.26510  Biso   1.000  C
  C165     1.0000 0.12420  0.89020  0.16410  Biso   1.000  C
  H156     1.0000 0.11040  0.85710  0.12820  Biso   1.000  H
  C166     1.0000 0.15450  0.89780  0.11410  Biso   1.000  C
  H157     1.0000 0.16100  0.87050  0.04670  Biso   1.000  H
  C167     1.0000 0.08300  0.91410  0.33360  Biso   1.000  C
  C168     1.0000 0.05260  0.90070  0.20630  Biso   1.000  C
  H158     1.0000 0.03390  0.88570  0.24730  Biso   1.000  H
  H159     1.0000 0.04600  0.93770  0.15130  Biso   1.000  H
  H160     1.0000 0.05900  0.87030  0.14090  Biso   1.000  H
  C169     1.0000 0.07250  0.96820  0.42230  Biso   1.000  C
  H161     1.0000 0.08960  0.97480  0.51020  Biso   1.000  H
  H162     1.0000 0.07020  0.00450  0.36160  Biso   1.000  H
  H163     1.0000 0.05120  0.95910  0.45050  Biso   1.000  H
  C170     1.0000 0.12500  0.40100  0.76000  Biso   1.000  C
  C171     1.0000 0.11280  0.35060  0.65500  Biso   1.000  C
  H164     1.0000 0.12720  0.31470  0.67690  Biso   1.000  H
  H165     1.0000 0.11350  0.36420  0.55480  Biso   1.000  H
  C172     1.0000 0.06430  0.29360  0.55140  Biso   1.000  C
  C173     1.0000 0.07960  0.25710  0.45950  Biso   1.000  C
  H166     1.0000 0.10280  0.25970  0.46070  Biso   1.000  H
  C174     1.0000 0.05870  0.21620  0.36460  Biso   1.000  C
  H167     1.0000 0.06870  0.19030  0.30450  Biso   1.000  H
  C175     1.0000 0.02380  0.21250  0.35620  Biso   1.000  C
  C176     1.0000 0.00970  0.24940  0.45270  Biso   1.000  C
  H168     1.0000 0.98630  0.24810  0.44890  Biso   1.000  H
  C177     1.0000 0.02960  0.28790  0.55410  Biso   1.000  C
  H169     1.0000 0.02010  0.30970  0.62320  Biso   1.000  H
  C178     1.0000 0.01940  0.13080  0.15920  Biso   1.000  C
  H170     1.0000 0.03330  0.15580  0.10840  Biso   1.000  H
  H171     1.0000 0.03360  0.10290  0.22500  Biso   1.000  H
  H172     1.0000 0.00350  0.10800  0.08740  Biso   1.000  H
  O80      1.0000 0.12030  0.56760  0.82300  Biso   1.000  O
  O81      1.0000 0.16980  0.61100  0.83400  Biso   1.000  O
  O82      1.0000 0.12800  0.41600  0.77000  Biso   1.000  O
  O83      1.0000 0.17390  0.36210  0.84000  Biso   1.000  O
  O84      1.0000 0.09140  0.33300  0.61700  Biso   1.000  O
  C179     1.0000 0.14600  0.37000  0.76500  Biso   1.000  C
  C180     1.0000 0.12700  0.32200  0.66300  Biso   1.000  C
  H173     1.0000 0.13030  0.28290  0.71250  Biso   1.000  H
  H174     1.0000 0.13700  0.31990  0.57440  Biso   1.000  H
  Pb7      1.0000 0.33043  0.99164  0.56243  Biso   1.000  Pb
  K7       1.0000 0.29095  0.12970  0.34850  Biso   1.000  K
  O85      1.0000 0.35920  0.05320  0.76800  Biso   1.000  O
  O86      1.0000 0.34030  0.12550  0.60700  Biso   1.000  O
  O87      1.0000 0.36670  0.21080  0.79140  Biso   1.000  O
  O88      1.0000 0.21390  0.51420  0.29650  Biso   1.000  O
  O89      1.0000 0.23620  0.45030  0.47130  Biso   1.000  O
  O90      1.0000 0.29460  0.45020  0.38350  Biso   1.000  O
  O91      1.0000 0.34870  0.92390  0.76110  Biso   1.000  O
  O92      1.0000 0.39050  0.92100  0.64480  Biso   1.000  O
  O93      1.0000 0.42120  0.83550  0.83400  Biso   1.000  O
  C181     1.0000 0.36000  0.10520  0.71800  Biso   1.000  C
  C182     1.0000 0.37950  0.15020  0.82540  Biso   1.000  C
  H175     1.0000 0.40340  0.14870  0.81960  Biso   1.000  H
  H176     1.0000 0.37750  0.13950  0.92620  Biso   1.000  H
  C183     1.0000 0.38190  0.25800  0.88790  Biso   1.000  C
  C184     1.0000 0.40650  0.24880  0.01400  Biso   1.000  C
  H177     1.0000 0.41510  0.20980  0.03990  Biso   1.000  H
  C185     1.0000 0.41810  0.29940  0.10120  Biso   1.000  C
  H178     1.0000 0.43430  0.29290  0.18740  Biso   1.000  H
  C186     1.0000 0.40720  0.35920  0.06870  Biso   1.000  C
  C187     1.0000 0.38270  0.36540  0.93890  Biso   1.000  C
  H179     1.0000 0.37440  0.40440  0.91130  Biso   1.000  H
  C188     1.0000 0.36990  0.31630  0.84830  Biso   1.000  C
  H180     1.0000 0.35360  0.32250  0.76240  Biso   1.000  H
  C189     1.0000 0.23780  0.48390  0.36530  Biso   1.000  C
  C190     1.0000 0.26990  0.49190  0.30580  Biso   1.000  C
  H181     1.0000 0.26560  0.48330  0.19970  Biso   1.000  H
  H182     1.0000 0.27800  0.53380  0.32140  Biso   1.000  H
  C191     1.0000 0.32540  0.44750  0.33170  Biso   1.000  C
  C192     1.0000 0.33450  0.48810  0.23180  Biso   1.000  C
  H183     1.0000 0.32060  0.52100  0.19520  Biso   1.000  H
  C193     1.0000 0.36540  0.47880  0.18700  Biso   1.000  C
  H184     1.0000 0.37210  0.50690  0.12180  Biso   1.000  H
  C194     1.0000 0.38650  0.42970  0.23490  Biso   1.000  C
  C195     1.0000 0.37580  0.39020  0.33590  Biso   1.000  C
  H185     1.0000 0.38960  0.35710  0.37180  Biso   1.000  H
  C196     1.0000 0.34550  0.39780  0.38590  Biso   1.000  C
  H186     1.0000 0.33900  0.37050  0.45330  Biso   1.000  H
  C197     1.0000 0.41700  0.41410  0.16640  Biso   1.000  C
  C198     1.0000 0.44740  0.40070  0.29370  Biso   1.000  C
  H187     1.0000 0.46610  0.38570  0.25270  Biso   1.000  H
  H188     1.0000 0.45400  0.43770  0.34870  Biso   1.000  H
  H189     1.0000 0.44100  0.37030  0.35910  Biso   1.000  H
  C199     1.0000 0.42750  0.46820  0.07770  Biso   1.000  C
  H190     1.0000 0.41040  0.47480  0.98980  Biso   1.000  H
  H191     1.0000 0.42980  0.50450  0.13840  Biso   1.000  H
  H192     1.0000 0.44880  0.45910  0.04950  Biso   1.000  H
  C200     1.0000 0.37500  0.90100  0.74000  Biso   1.000  C
  C201     1.0000 0.38720  0.85060  0.84500  Biso   1.000  C
  H193     1.0000 0.37280  0.81470  0.82310  Biso   1.000  H
  H194     1.0000 0.38650  0.86420  0.94520  Biso   1.000  H
  C202     1.0000 0.43570  0.79360  0.94860  Biso   1.000  C
  C203     1.0000 0.42040  0.75710  0.04050  Biso   1.000  C
  H195     1.0000 0.39720  0.75970  0.03930  Biso   1.000  H
  C204     1.0000 0.44130  0.71620  0.13540  Biso   1.000  C
  H196     1.0000 0.43130  0.69030  0.19550  Biso   1.000  H
  C205     1.0000 0.47620  0.71250  0.14380  Biso   1.000  C
  C206     1.0000 0.49030  0.74940  0.04730  Biso   1.000  C
  H197     1.0000 0.51370  0.74810  0.05110  Biso   1.000  H
  C207     1.0000 0.47040  0.78790  0.94590  Biso   1.000  C
  H198     1.0000 0.47990  0.80970  0.87680  Biso   1.000  H
  C208     1.0000 0.48060  0.63080  0.34080  Biso   1.000  C
  H199     1.0000 0.46670  0.65580  0.39160  Biso   1.000  H
  H200     1.0000 0.46640  0.60290  0.27500  Biso   1.000  H
  H201     1.0000 0.49650  0.60800  0.41260  Biso   1.000  H
  O94      1.0000 0.37970  0.06760  0.67700  Biso   1.000  O
  O95      1.0000 0.33020  0.11100  0.66600  Biso   1.000  O
  O96      1.0000 0.37200  0.91600  0.73000  Biso   1.000  O
  O97      1.0000 0.32610  0.86210  0.66000  Biso   1.000  O
  O98      1.0000 0.40860  0.83300  0.88300  Biso   1.000  O
  C209     1.0000 0.35400  0.87000  0.73500  Biso   1.000  C
  C210     1.0000 0.37300  0.82200  0.83700  Biso   1.000  C
  H202     1.0000 0.36970  0.78290  0.78750  Biso   1.000  H
  H203     1.0000 0.36300  0.81990  0.92560  Biso   1.000  H
  Pb8      1.0000 0.83043  0.49164  0.56243  Biso   1.000  Pb
  K8       1.0000 0.79095  0.62970  0.34850  Biso   1.000  K
  O99      1.0000 0.85920  0.55320  0.76800  Biso   1.000  O
  O100     1.0000 0.84030  0.62550  0.60700  Biso   1.000  O
  O101     1.0000 0.86670  0.71080  0.79140  Biso   1.000  O
  O102     1.0000 0.71390  0.01420  0.29650  Biso   1.000  O
  O103     1.0000 0.73620  0.95030  0.47130  Biso   1.000  O
  O104     1.0000 0.79460  0.95020  0.38350  Biso   1.000  O
  O105     1.0000 0.84870  0.42390  0.76110  Biso   1.000  O
  O106     1.0000 0.89050  0.42100  0.64480  Biso   1.000  O
  O107     1.0000 0.92120  0.33550  0.83400  Biso   1.000  O
  C211     1.0000 0.86000  0.60520  0.71800  Biso   1.000  C
  C212     1.0000 0.87950  0.65020  0.82540  Biso   1.000  C
  H204     1.0000 0.90340  0.64870  0.81960  Biso   1.000  H
  H205     1.0000 0.87750  0.63950  0.92620  Biso   1.000  H
  C213     1.0000 0.88190  0.75800  0.88790  Biso   1.000  C
  C214     1.0000 0.90650  0.74880  0.01400  Biso   1.000  C
  H206     1.0000 0.91510  0.70980  0.03990  Biso   1.000  H
  C215     1.0000 0.91810  0.79940  0.10120  Biso   1.000  C
  H207     1.0000 0.93430  0.79290  0.18740  Biso   1.000  H
  C216     1.0000 0.90720  0.85920  0.06870  Biso   1.000  C
  C217     1.0000 0.88270  0.86540  0.93890  Biso   1.000  C
  H208     1.0000 0.87440  0.90440  0.91130  Biso   1.000  H
  C218     1.0000 0.86990  0.81630  0.84830  Biso   1.000  C
  H209     1.0000 0.85360  0.82250  0.76240  Biso   1.000  H
  C219     1.0000 0.73780  0.98390  0.36530  Biso   1.000  C
  C220     1.0000 0.76990  0.99190  0.30580  Biso   1.000  C
  H210     1.0000 0.76560  0.98330  0.19970  Biso   1.000  H
  H211     1.0000 0.77800  0.03380  0.32140  Biso   1.000  H
  C221     1.0000 0.82540  0.94750  0.33170  Biso   1.000  C
  C222     1.0000 0.83450  0.98810  0.23180  Biso   1.000  C
  H212     1.0000 0.82060  0.02100  0.19520  Biso   1.000  H
  C223     1.0000 0.86540  0.97880  0.18700  Biso   1.000  C
  H213     1.0000 0.87210  0.00690  0.12180  Biso   1.000  H
  C224     1.0000 0.88650  0.92970  0.23490  Biso   1.000  C
  C225     1.0000 0.87580  0.89020  0.33590  Biso   1.000  C
  H214     1.0000 0.88960  0.85710  0.37180  Biso   1.000  H
  C226     1.0000 0.84550  0.89780  0.38590  Biso   1.000  C
  H215     1.0000 0.83900  0.87050  0.45330  Biso   1.000  H
  C227     1.0000 0.91700  0.91410  0.16640  Biso   1.000  C
  C228     1.0000 0.94740  0.90070  0.29370  Biso   1.000  C
  H216     1.0000 0.96610  0.88570  0.25270  Biso   1.000  H
  H217     1.0000 0.95400  0.93770  0.34870  Biso   1.000  H
  H218     1.0000 0.94100  0.87030  0.35910  Biso   1.000  H
  C229     1.0000 0.92750  0.96820  0.07770  Biso   1.000  C
  H219     1.0000 0.91040  0.97480  0.98980  Biso   1.000  H
  H220     1.0000 0.92980  0.00450  0.13840  Biso   1.000  H
  H221     1.0000 0.94880  0.95910  0.04950  Biso   1.000  H
  C230     1.0000 0.87500  0.40100  0.74000  Biso   1.000  C
  C231     1.0000 0.88720  0.35060  0.84500  Biso   1.000  C
  H222     1.0000 0.87280  0.31470  0.82310  Biso   1.000  H
  H223     1.0000 0.88650  0.36420  0.94520  Biso   1.000  H
  C232     1.0000 0.93570  0.29360  0.94860  Biso   1.000  C
  C233     1.0000 0.92040  0.25710  0.04050  Biso   1.000  C
  H224     1.0000 0.89720  0.25970  0.03930  Biso   1.000  H
  C234     1.0000 0.94130  0.21620  0.13540  Biso   1.000  C
  H225     1.0000 0.93130  0.19030  0.19550  Biso   1.000  H
  C235     1.0000 0.97620  0.21250  0.14380  Biso   1.000  C
  C236     1.0000 0.99030  0.24940  0.04730  Biso   1.000  C
  H226     1.0000 0.01370  0.24810  0.05110  Biso   1.000  H
  C237     1.0000 0.97040  0.28790  0.94590  Biso   1.000  C
  H227     1.0000 0.97990  0.30970  0.87680  Biso   1.000  H
  C238     1.0000 0.98060  0.13080  0.34080  Biso   1.000  C
  H228     1.0000 0.96670  0.15580  0.39160  Biso   1.000  H
  H229     1.0000 0.96640  0.10290  0.27500  Biso   1.000  H
  H230     1.0000 0.99650  0.10800  0.41260  Biso   1.000  H
  O108     1.0000 0.87970  0.56760  0.67700  Biso   1.000  O
  O109     1.0000 0.83020  0.61100  0.66600  Biso   1.000  O
  O110     1.0000 0.87200  0.41600  0.73000  Biso   1.000  O
  O111     1.0000 0.82610  0.36210  0.66000  Biso   1.000  O
  O112     1.0000 0.90860  0.33300  0.88300  Biso   1.000  O
  C239     1.0000 0.85400  0.37000  0.73500  Biso   1.000  C
  C240     1.0000 0.87300  0.32200  0.83700  Biso   1.000  C
  H231     1.0000 0.86970  0.28290  0.78750  Biso   1.000  H
  H232     1.0000 0.86300  0.31990  0.92560  Biso   1.000  H
  C241     1.0000 0.50000  0.32790  0.75000  Biso   1.000  C
  C242     1.0000 0.00000  0.82790  0.75000  Biso   1.000  C
  C243     1.0000 0.50000  0.67210  0.25000  Biso   1.000  C
  C244     1.0000 0.00000  0.17210  0.25000  Biso   1.000  C
