data_image0
_cell_length_a       19.6369
_cell_length_b       20.2159
_cell_length_c       22.1129
_cell_angle_alpha    90
_cell_angle_beta     90
_cell_angle_gamma    90

_symmetry_space_group_name_H-M    "P 1"
_symmetry_int_tables_number       1

loop_
  _symmetry_equiv_pos_as_xyz
  'x, y, z'

loop_
  _atom_site_label
  _atom_site_occupancy
  _atom_site_fract_x
  _atom_site_fract_y
  _atom_site_fract_z
  _atom_site_thermal_displace_type
  _atom_site_B_iso_or_equiv
  _atom_site_type_symbol
  Na1      1.0000 0.41873  0.05156  0.41323  Biso   1.000  Na
  Na2      1.0000 0.05376  0.93134  0.39225  Biso   1.000  Na
  N1       1.0000 0.29500  0.01581  0.41170  Biso   1.000  N
  N2       1.0000 0.16921  0.97527  0.40697  Biso   1.000  N
  N3       1.0000 0.42550  0.17704  0.39650  Biso   1.000  N
  N4       1.0000 0.07140  0.80559  0.38880  Biso   1.000  N
  N5       1.0000 0.46800  0.00983  0.31496  Biso   1.000  N
  N6       1.0000 0.02630  0.97360  0.28583  Biso   1.000  N
  C1       1.0000 0.28000  0.98050  0.35440  Biso   1.000  C
  H1       1.0000 0.31360  0.94460  0.34860  Biso   1.000  H
  H2       1.0000 0.28420  0.01160  0.32010  Biso   1.000  H
  C2       1.0000 0.20790  0.95120  0.35520  Biso   1.000  C
  H3       1.0000 0.18400  0.96330  0.31740  Biso   1.000  H
  H4       1.0000 0.21090  0.90230  0.35700  Biso   1.000  H
  C3       1.0000 0.27920  0.96980  0.46160  Biso   1.000  C
  H5       1.0000 0.29160  0.99060  0.50060  Biso   1.000  H
  H6       1.0000 0.30670  0.92900  0.45690  Biso   1.000  H
  C4       1.0000 0.20330  0.95170  0.46220  Biso   1.000  C
  H7       1.0000 0.19830  0.90310  0.46540  Biso   1.000  H
  H8       1.0000 0.18130  0.97190  0.49810  Biso   1.000  H
  C5       1.0000 0.24710  0.07190  0.41570  Biso   1.000  C
  H9       1.0000 0.25820  0.10480  0.38420  Biso   1.000  H
  H10      1.0000 0.25190  0.09350  0.45570  Biso   1.000  H
  C6       1.0000 0.17250  0.04770  0.40740  Biso   1.000  C
  H11      1.0000 0.14390  0.06500  0.44070  Biso   1.000  H
  H12      1.0000 0.15410  0.06510  0.36880  Biso   1.000  H
  C7       1.0000 0.49610  0.20180  0.39370  Biso   1.000  C
  H13      1.0000 0.51970  0.18160  0.35880  Biso   1.000  H
  H14      1.0000 0.52070  0.18890  0.43090  Biso   1.000  H
  C8       1.0000 0.00280  0.77750  0.38730  Biso   1.000  C
  H15      1.0000 0.97550  0.79670  0.42060  Biso   1.000  H
  H16      1.0000 0.98070  0.78950  0.34860  Biso   1.000  H
  C9       1.0000 0.39060  0.20010  0.34210  Biso   1.000  C
  H17      1.0000 0.34320  0.18350  0.34220  Biso   1.000  H
  H18      1.0000 0.41380  0.18200  0.30600  Biso   1.000  H
  C10      1.0000 0.11000  0.77650  0.33850  Biso   1.000  C
  H19      1.0000 0.08970  0.79070  0.29960  Biso   1.000  H
  H20      1.0000 0.15760  0.79250  0.33980  Biso   1.000  H
  C11      1.0000 0.39310  0.20770  0.44910  Biso   1.000  C
  H21      1.0000 0.41650  0.19310  0.48640  Biso   1.000  H
  H22      1.0000 0.34500  0.19330  0.45150  Biso   1.000  H
  C12      1.0000 0.10400  0.78400  0.44480  Biso   1.000  C
  H23      1.0000 0.15080  0.80210  0.44660  Biso   1.000  H
  H24      1.0000 0.07830  0.80170  0.47980  Biso   1.000  H
  C13      1.0000 0.47830  0.93770  0.31340  Biso   1.000  C
  H25      1.0000 0.43380  0.91510  0.31790  Biso   1.000  H
  H26      1.0000 0.50760  0.92420  0.34760  Biso   1.000  H
  C14      1.0000 0.01180  0.91630  0.24680  Biso   1.000  C
  H27      1.0000 0.05480  0.89250  0.23810  Biso   1.000  H
  H28      1.0000 0.98100  0.88550  0.26840  Biso   1.000  H
  C15      1.0000 0.42690  0.02770  0.26170  Biso   1.000  C
  H29      1.0000 0.41870  0.07600  0.26170  Biso   1.000  H
  H30      1.0000 0.38220  0.00520  0.26410  Biso   1.000  H
  C16      1.0000 0.96210  0.00830  0.29670  Biso   1.000  C
  H31      1.0000 0.93150  0.97940  0.32050  Biso   1.000  H
  H32      1.0000 0.97120  0.04850  0.32090  Biso   1.000  H
  C17      1.0000 0.53530  0.04100  0.30740  Biso   1.000  C
  H33      1.0000 0.56450  0.02940  0.34230  Biso   1.000  H
  H34      1.0000 0.52990  0.08970  0.30690  Biso   1.000  H
  C18      1.0000 0.07040  0.01880  0.25120  Biso   1.000  C
  H35      1.0000 0.08120  0.05810  0.27620  Biso   1.000  H
  H36      1.0000 0.11370  0.99630  0.24120  Biso   1.000  H
  C19      1.0000 0.97790  0.03730  0.47400  Biso   1.000  C
  C20      1.0000 0.97710  0.98440  0.48170  Biso   1.000  C
  H37      1.0000 0.94510  0.06540  0.43480  Biso   1.000  H
  C21      1.0000 0.98030  0.90460  0.50720  Biso   1.000  C
  H38      1.0000 0.98110  0.85930  0.51850  Biso   1.000  H
  C22      1.0000 0.93530  0.92630  0.46290  Biso   1.000  C
  H39      1.0000 0.90540  0.89570  0.44390  Biso   1.000  H
  C23      1.0000 0.93410  0.99260  0.44630  Biso   1.000  C
  H40      1.0000 0.90330  0.00730  0.41600  Biso   1.000  H
  H41      1.0000 0.96460  0.90600  0.42860  Biso   1.000  H
  H42      1.0000 0.90720  0.91340  0.47950  Biso   1.000  H
  H43      1.0000 0.97710  0.08260  0.46270  Biso   1.000  H
  C24      1.0000 0.02410  0.94930  0.53490  Biso   1.000  C
  C25      1.0000 0.06450  0.06260  0.54970  Biso   1.000  C
  H44      1.0000 0.09380  0.03940  0.57860  Biso   1.000  H
  Na3      1.0000 0.08127  0.94844  0.91323  Biso   1.000  Na
  Na4      1.0000 0.44624  0.06866  0.89225  Biso   1.000  Na
  N7       1.0000 0.20500  0.98419  0.91170  Biso   1.000  N
  N8       1.0000 0.33079  0.02473  0.90697  Biso   1.000  N
  N9       1.0000 0.07450  0.82296  0.89650  Biso   1.000  N
  N10      1.0000 0.42860  0.19441  0.88880  Biso   1.000  N
  N11      1.0000 0.03200  0.99017  0.81496  Biso   1.000  N
  N12      1.0000 0.47370  0.02640  0.78583  Biso   1.000  N
  C26      1.0000 0.22000  0.01950  0.85440  Biso   1.000  C
  H45      1.0000 0.18640  0.05540  0.84860  Biso   1.000  H
  H46      1.0000 0.21580  0.98840  0.82010  Biso   1.000  H
  C27      1.0000 0.29210  0.04880  0.85520  Biso   1.000  C
  H47      1.0000 0.31600  0.03670  0.81740  Biso   1.000  H
  H48      1.0000 0.28910  0.09770  0.85700  Biso   1.000  H
  C28      1.0000 0.22080  0.03020  0.96160  Biso   1.000  C
  H49      1.0000 0.20840  0.00940  0.00060  Biso   1.000  H
  H50      1.0000 0.19330  0.07100  0.95690  Biso   1.000  H
  C29      1.0000 0.29670  0.04830  0.96220  Biso   1.000  C
  H51      1.0000 0.30170  0.09690  0.96540  Biso   1.000  H
  H52      1.0000 0.31870  0.02810  0.99810  Biso   1.000  H
  C30      1.0000 0.25290  0.92810  0.91570  Biso   1.000  C
  H53      1.0000 0.24180  0.89520  0.88420  Biso   1.000  H
  H54      1.0000 0.24810  0.90650  0.95570  Biso   1.000  H
  C31      1.0000 0.32750  0.95230  0.90740  Biso   1.000  C
  H55      1.0000 0.35610  0.93500  0.94070  Biso   1.000  H
  H56      1.0000 0.34590  0.93490  0.86880  Biso   1.000  H
  C32      1.0000 0.00390  0.79820  0.89370  Biso   1.000  C
  H57      1.0000 0.98030  0.81840  0.85880  Biso   1.000  H
  H58      1.0000 0.97930  0.81110  0.93090  Biso   1.000  H
  C33      1.0000 0.49720  0.22250  0.88730  Biso   1.000  C
  H59      1.0000 0.52450  0.20330  0.92060  Biso   1.000  H
  H60      1.0000 0.51930  0.21050  0.84860  Biso   1.000  H
  C34      1.0000 0.10940  0.79990  0.84210  Biso   1.000  C
  H61      1.0000 0.15680  0.81650  0.84220  Biso   1.000  H
  H62      1.0000 0.08620  0.81800  0.80600  Biso   1.000  H
  C35      1.0000 0.39000  0.22350  0.83850  Biso   1.000  C
  H63      1.0000 0.41030  0.20930  0.79960  Biso   1.000  H
  H64      1.0000 0.34240  0.20750  0.83980  Biso   1.000  H
  C36      1.0000 0.10690  0.79230  0.94910  Biso   1.000  C
  H65      1.0000 0.08350  0.80690  0.98640  Biso   1.000  H
  H66      1.0000 0.15500  0.80670  0.95150  Biso   1.000  H
  C37      1.0000 0.39600  0.21600  0.94480  Biso   1.000  C
  H67      1.0000 0.34920  0.19790  0.94660  Biso   1.000  H
  H68      1.0000 0.42170  0.19830  0.97980  Biso   1.000  H
  C38      1.0000 0.02170  0.06230  0.81340  Biso   1.000  C
  H69      1.0000 0.06620  0.08490  0.81790  Biso   1.000  H
  H70      1.0000 0.99240  0.07580  0.84760  Biso   1.000  H
  C39      1.0000 0.48820  0.08370  0.74680  Biso   1.000  C
  H71      1.0000 0.44520  0.10750  0.73810  Biso   1.000  H
  H72      1.0000 0.51900  0.11450  0.76840  Biso   1.000  H
  C40      1.0000 0.07310  0.97230  0.76170  Biso   1.000  C
  H73      1.0000 0.08130  0.92400  0.76170  Biso   1.000  H
  H74      1.0000 0.11780  0.99480  0.76410  Biso   1.000  H
  C41      1.0000 0.53790  0.99170  0.79670  Biso   1.000  C
  H75      1.0000 0.56850  0.02060  0.82050  Biso   1.000  H
  H76      1.0000 0.52880  0.95150  0.82090  Biso   1.000  H
  C42      1.0000 0.96470  0.95900  0.80740  Biso   1.000  C
  H77      1.0000 0.93550  0.97060  0.84230  Biso   1.000  H
  H78      1.0000 0.97010  0.91030  0.80690  Biso   1.000  H
  C43      1.0000 0.42960  0.98120  0.75120  Biso   1.000  C
  H79      1.0000 0.41880  0.94190  0.77620  Biso   1.000  H
  H80      1.0000 0.38630  0.00370  0.74120  Biso   1.000  H
  C44      1.0000 0.52210  0.96270  0.97400  Biso   1.000  C
  C45      1.0000 0.52290  0.01560  0.98170  Biso   1.000  C
  H81      1.0000 0.55490  0.93460  0.93480  Biso   1.000  H
  C46      1.0000 0.51970  0.09540  0.00720  Biso   1.000  C
  H82      1.0000 0.51890  0.14070  0.01850  Biso   1.000  H
  C47      1.0000 0.56470  0.07370  0.96290  Biso   1.000  C
  H83      1.0000 0.59460  0.10430  0.94390  Biso   1.000  H
  C48      1.0000 0.56590  0.00740  0.94630  Biso   1.000  C
  H84      1.0000 0.59670  0.99270  0.91600  Biso   1.000  H
  H85      1.0000 0.53540  0.09400  0.92860  Biso   1.000  H
  H86      1.0000 0.59280  0.08660  0.97950  Biso   1.000  H
  H87      1.0000 0.52290  0.91740  0.96270  Biso   1.000  H
  C49      1.0000 0.47590  0.05070  0.03490  Biso   1.000  C
  C50      1.0000 0.43550  0.93740  0.04970  Biso   1.000  C
  H88      1.0000 0.40620  0.96060  0.07860  Biso   1.000  H
  Na5      1.0000 0.58127  0.55156  0.08677  Biso   1.000  Na
  Na6      1.0000 0.94624  0.43134  0.10775  Biso   1.000  Na
  N13      1.0000 0.70500  0.51581  0.08830  Biso   1.000  N
  N14      1.0000 0.83079  0.47527  0.09303  Biso   1.000  N
  N15      1.0000 0.57450  0.67704  0.10350  Biso   1.000  N
  N16      1.0000 0.92860  0.30559  0.11120  Biso   1.000  N
  N17      1.0000 0.53200  0.50983  0.18504  Biso   1.000  N
  N18      1.0000 0.97370  0.47360  0.21417  Biso   1.000  N
  C51      1.0000 0.72000  0.48050  0.14560  Biso   1.000  C
  H89      1.0000 0.68640  0.44460  0.15140  Biso   1.000  H
  H90      1.0000 0.71580  0.51160  0.17990  Biso   1.000  H
  C52      1.0000 0.79210  0.45120  0.14480  Biso   1.000  C
  H91      1.0000 0.81600  0.46330  0.18260  Biso   1.000  H
  H92      1.0000 0.78910  0.40230  0.14300  Biso   1.000  H
  C53      1.0000 0.72080  0.46980  0.03840  Biso   1.000  C
  H93      1.0000 0.70840  0.49060  0.99940  Biso   1.000  H
  H94      1.0000 0.69330  0.42900  0.04310  Biso   1.000  H
  C54      1.0000 0.79670  0.45170  0.03780  Biso   1.000  C
  H95      1.0000 0.80170  0.40310  0.03460  Biso   1.000  H
  H96      1.0000 0.81870  0.47190  0.00190  Biso   1.000  H
  C55      1.0000 0.75290  0.57190  0.08430  Biso   1.000  C
  H97      1.0000 0.74180  0.60480  0.11580  Biso   1.000  H
  H98      1.0000 0.74810  0.59350  0.04430  Biso   1.000  H
  C56      1.0000 0.82750  0.54770  0.09260  Biso   1.000  C
  H99      1.0000 0.85610  0.56500  0.05930  Biso   1.000  H
  H100     1.0000 0.84590  0.56510  0.13120  Biso   1.000  H
  C57      1.0000 0.50390  0.70180  0.10630  Biso   1.000  C
  H101     1.0000 0.48030  0.68160  0.14120  Biso   1.000  H
  H102     1.0000 0.47930  0.68890  0.06910  Biso   1.000  H
  C58      1.0000 0.99720  0.27750  0.11270  Biso   1.000  C
  H103     1.0000 0.02450  0.29670  0.07940  Biso   1.000  H
  H104     1.0000 0.01930  0.28950  0.15140  Biso   1.000  H
  C59      1.0000 0.60940  0.70010  0.15790  Biso   1.000  C
  H105     1.0000 0.65680  0.68350  0.15780  Biso   1.000  H
  H106     1.0000 0.58620  0.68200  0.19400  Biso   1.000  H
  C60      1.0000 0.89000  0.27650  0.16150  Biso   1.000  C
  H107     1.0000 0.91030  0.29070  0.20040  Biso   1.000  H
  H108     1.0000 0.84240  0.29250  0.16020  Biso   1.000  H
  C61      1.0000 0.60690  0.70770  0.05090  Biso   1.000  C
  H109     1.0000 0.58350  0.69310  0.01360  Biso   1.000  H
  H110     1.0000 0.65500  0.69330  0.04850  Biso   1.000  H
  C62      1.0000 0.89600  0.28400  0.05520  Biso   1.000  C
  H111     1.0000 0.84920  0.30210  0.05340  Biso   1.000  H
  H112     1.0000 0.92170  0.30170  0.02020  Biso   1.000  H
  C63      1.0000 0.52170  0.43770  0.18660  Biso   1.000  C
  H113     1.0000 0.56620  0.41510  0.18210  Biso   1.000  H
  H114     1.0000 0.49240  0.42420  0.15240  Biso   1.000  H
  C64      1.0000 0.98820  0.41630  0.25320  Biso   1.000  C
  H115     1.0000 0.94520  0.39250  0.26190  Biso   1.000  H
  H116     1.0000 0.01900  0.38550  0.23160  Biso   1.000  H
  C65      1.0000 0.57310  0.52770  0.23830  Biso   1.000  C
  H117     1.0000 0.58130  0.57600  0.23830  Biso   1.000  H
  H118     1.0000 0.61780  0.50520  0.23590  Biso   1.000  H
  C66      1.0000 0.03790  0.50830  0.20330  Biso   1.000  C
  H119     1.0000 0.06850  0.47940  0.17950  Biso   1.000  H
  H120     1.0000 0.02880  0.54850  0.17910  Biso   1.000  H
  C67      1.0000 0.46470  0.54100  0.19260  Biso   1.000  C
  H121     1.0000 0.43550  0.52940  0.15770  Biso   1.000  H
  H122     1.0000 0.47010  0.58970  0.19310  Biso   1.000  H
  C68      1.0000 0.92960  0.51880  0.24880  Biso   1.000  C
  H123     1.0000 0.91880  0.55810  0.22380  Biso   1.000  H
  H124     1.0000 0.88630  0.49630  0.25880  Biso   1.000  H
  C69      1.0000 0.02210  0.53730  0.02600  Biso   1.000  C
  C70      1.0000 0.02290  0.48440  0.01830  Biso   1.000  C
  H125     1.0000 0.05490  0.56540  0.06520  Biso   1.000  H
  C71      1.0000 0.01970  0.40460  0.99280  Biso   1.000  C
  H126     1.0000 0.01890  0.35930  0.98150  Biso   1.000  H
  C72      1.0000 0.06470  0.42630  0.03710  Biso   1.000  C
  H127     1.0000 0.09460  0.39570  0.05610  Biso   1.000  H
  C73      1.0000 0.06590  0.49260  0.05370  Biso   1.000  C
  H128     1.0000 0.09670  0.50730  0.08400  Biso   1.000  H
  H129     1.0000 0.03540  0.40600  0.07140  Biso   1.000  H
  H130     1.0000 0.09280  0.41340  0.02050  Biso   1.000  H
  H131     1.0000 0.02290  0.58260  0.03730  Biso   1.000  H
  C74      1.0000 0.97590  0.44930  0.96510  Biso   1.000  C
  C75      1.0000 0.93550  0.56260  0.95030  Biso   1.000  C
  H132     1.0000 0.90620  0.53940  0.92140  Biso   1.000  H
  Na7      1.0000 0.91873  0.44844  0.58677  Biso   1.000  Na
  Na8      1.0000 0.55376  0.56866  0.60775  Biso   1.000  Na
  N19      1.0000 0.79500  0.48419  0.58830  Biso   1.000  N
  N20      1.0000 0.66921  0.52473  0.59303  Biso   1.000  N
  N21      1.0000 0.92550  0.32296  0.60350  Biso   1.000  N
  N22      1.0000 0.57140  0.69441  0.61120  Biso   1.000  N
  N23      1.0000 0.96800  0.49017  0.68504  Biso   1.000  N
  N24      1.0000 0.52630  0.52640  0.71417  Biso   1.000  N
  C76      1.0000 0.78000  0.51950  0.64560  Biso   1.000  C
  H133     1.0000 0.81360  0.55540  0.65140  Biso   1.000  H
  H134     1.0000 0.78420  0.48840  0.67990  Biso   1.000  H
  C77      1.0000 0.70790  0.54880  0.64480  Biso   1.000  C
  H135     1.0000 0.68400  0.53670  0.68260  Biso   1.000  H
  H136     1.0000 0.71090  0.59770  0.64300  Biso   1.000  H
  C78      1.0000 0.77920  0.53020  0.53840  Biso   1.000  C
  H137     1.0000 0.79160  0.50940  0.49940  Biso   1.000  H
  H138     1.0000 0.80670  0.57100  0.54310  Biso   1.000  H
  C79      1.0000 0.70330  0.54830  0.53780  Biso   1.000  C
  H139     1.0000 0.69830  0.59690  0.53460  Biso   1.000  H
  H140     1.0000 0.68130  0.52810  0.50190  Biso   1.000  H
  C80      1.0000 0.74710  0.42810  0.58430  Biso   1.000  C
  H141     1.0000 0.75820  0.39520  0.61580  Biso   1.000  H
  H142     1.0000 0.75190  0.40650  0.54430  Biso   1.000  H
  C81      1.0000 0.67250  0.45230  0.59260  Biso   1.000  C
  H143     1.0000 0.64390  0.43500  0.55930  Biso   1.000  H
  H144     1.0000 0.65410  0.43490  0.63120  Biso   1.000  H
  C82      1.0000 0.99610  0.29820  0.60630  Biso   1.000  C
  H145     1.0000 0.01970  0.31840  0.64120  Biso   1.000  H
  H146     1.0000 0.02070  0.31110  0.56910  Biso   1.000  H
  C83      1.0000 0.50280  0.72250  0.61270  Biso   1.000  C
  H147     1.0000 0.47550  0.70330  0.57940  Biso   1.000  H
  H148     1.0000 0.48070  0.71050  0.65140  Biso   1.000  H
  C84      1.0000 0.89060  0.29990  0.65790  Biso   1.000  C
  H149     1.0000 0.84320  0.31650  0.65780  Biso   1.000  H
  H150     1.0000 0.91380  0.31800  0.69400  Biso   1.000  H
  C85      1.0000 0.61000  0.72350  0.66150  Biso   1.000  C
  H151     1.0000 0.58970  0.70930  0.70040  Biso   1.000  H
  H152     1.0000 0.65760  0.70750  0.66020  Biso   1.000  H
  C86      1.0000 0.89310  0.29230  0.55090  Biso   1.000  C
  H153     1.0000 0.91650  0.30690  0.51360  Biso   1.000  H
  H154     1.0000 0.84500  0.30670  0.54850  Biso   1.000  H
  C87      1.0000 0.60400  0.71600  0.55520  Biso   1.000  C
  H155     1.0000 0.65080  0.69790  0.55340  Biso   1.000  H
  H156     1.0000 0.57830  0.69830  0.52020  Biso   1.000  H
  C88      1.0000 0.97830  0.56230  0.68660  Biso   1.000  C
  H157     1.0000 0.93380  0.58490  0.68210  Biso   1.000  H
  H158     1.0000 0.00760  0.57580  0.65240  Biso   1.000  H
  C89      1.0000 0.51180  0.58370  0.75320  Biso   1.000  C
  H159     1.0000 0.55480  0.60750  0.76190  Biso   1.000  H
  H160     1.0000 0.48100  0.61450  0.73160  Biso   1.000  H
  C90      1.0000 0.92690  0.47230  0.73830  Biso   1.000  C
  H161     1.0000 0.91870  0.42400  0.73830  Biso   1.000  H
  H162     1.0000 0.88220  0.49480  0.73590  Biso   1.000  H
  C91      1.0000 0.46210  0.49170  0.70330  Biso   1.000  C
  H163     1.0000 0.43150  0.52060  0.67950  Biso   1.000  H
  H164     1.0000 0.47120  0.45150  0.67910  Biso   1.000  H
  C92      1.0000 0.03530  0.45900  0.69260  Biso   1.000  C
  H165     1.0000 0.06450  0.47060  0.65770  Biso   1.000  H
  H166     1.0000 0.02990  0.41030  0.69310  Biso   1.000  H
  C93      1.0000 0.57040  0.48120  0.74880  Biso   1.000  C
  H167     1.0000 0.58120  0.44190  0.72380  Biso   1.000  H
  H168     1.0000 0.61370  0.50370  0.75880  Biso   1.000  H
  C94      1.0000 0.47790  0.46270  0.52600  Biso   1.000  C
  C95      1.0000 0.47710  0.51560  0.51830  Biso   1.000  C
  H169     1.0000 0.44510  0.43460  0.56520  Biso   1.000  H
  C96      1.0000 0.48030  0.59540  0.49280  Biso   1.000  C
  H170     1.0000 0.48110  0.64070  0.48150  Biso   1.000  H
  C97      1.0000 0.43530  0.57370  0.53710  Biso   1.000  C
  H171     1.0000 0.40540  0.60430  0.55610  Biso   1.000  H
  C98      1.0000 0.43410  0.50740  0.55370  Biso   1.000  C
  H172     1.0000 0.40330  0.49270  0.58400  Biso   1.000  H
  H173     1.0000 0.46460  0.59400  0.57140  Biso   1.000  H
  H174     1.0000 0.40720  0.58660  0.52050  Biso   1.000  H
  H175     1.0000 0.47710  0.41740  0.53730  Biso   1.000  H
  C99      1.0000 0.52410  0.55070  0.46510  Biso   1.000  C
  C100     1.0000 0.56450  0.43740  0.45030  Biso   1.000  C
  H176     1.0000 0.59380  0.46060  0.42140  Biso   1.000  H
  Na9      1.0000 0.58127  0.94844  0.58677  Biso   1.000  Na
  Na10     1.0000 0.94624  0.06866  0.60775  Biso   1.000  Na
  N25      1.0000 0.70500  0.98419  0.58830  Biso   1.000  N
  N26      1.0000 0.83079  0.02473  0.59303  Biso   1.000  N
  N27      1.0000 0.57450  0.82296  0.60350  Biso   1.000  N
  N28      1.0000 0.92860  0.19441  0.61120  Biso   1.000  N
  N29      1.0000 0.53200  0.99017  0.68504  Biso   1.000  N
  N30      1.0000 0.97370  0.02640  0.71417  Biso   1.000  N
  C101     1.0000 0.72000  0.01950  0.64560  Biso   1.000  C
  H177     1.0000 0.68640  0.05540  0.65140  Biso   1.000  H
  H178     1.0000 0.71580  0.98840  0.67990  Biso   1.000  H
  C102     1.0000 0.79210  0.04880  0.64480  Biso   1.000  C
  H179     1.0000 0.81600  0.03670  0.68260  Biso   1.000  H
  H180     1.0000 0.78910  0.09770  0.64300  Biso   1.000  H
  C103     1.0000 0.72080  0.03020  0.53840  Biso   1.000  C
  H181     1.0000 0.70840  0.00940  0.49940  Biso   1.000  H
  H182     1.0000 0.69330  0.07100  0.54310  Biso   1.000  H
  C104     1.0000 0.79670  0.04830  0.53780  Biso   1.000  C
  H183     1.0000 0.80170  0.09690  0.53460  Biso   1.000  H
  H184     1.0000 0.81870  0.02810  0.50190  Biso   1.000  H
  C105     1.0000 0.75290  0.92810  0.58430  Biso   1.000  C
  H185     1.0000 0.74180  0.89520  0.61580  Biso   1.000  H
  H186     1.0000 0.74810  0.90650  0.54430  Biso   1.000  H
  C106     1.0000 0.82750  0.95230  0.59260  Biso   1.000  C
  H187     1.0000 0.85610  0.93500  0.55930  Biso   1.000  H
  H188     1.0000 0.84590  0.93490  0.63120  Biso   1.000  H
  C107     1.0000 0.50390  0.79820  0.60630  Biso   1.000  C
  H189     1.0000 0.48030  0.81840  0.64120  Biso   1.000  H
  H190     1.0000 0.47930  0.81110  0.56910  Biso   1.000  H
  C108     1.0000 0.99720  0.22250  0.61270  Biso   1.000  C
  H191     1.0000 0.02450  0.20330  0.57940  Biso   1.000  H
  H192     1.0000 0.01930  0.21050  0.65140  Biso   1.000  H
  C109     1.0000 0.60940  0.79990  0.65790  Biso   1.000  C
  H193     1.0000 0.65680  0.81650  0.65780  Biso   1.000  H
  H194     1.0000 0.58620  0.81800  0.69400  Biso   1.000  H
  C110     1.0000 0.89000  0.22350  0.66150  Biso   1.000  C
  H195     1.0000 0.91030  0.20930  0.70040  Biso   1.000  H
  H196     1.0000 0.84240  0.20750  0.66020  Biso   1.000  H
  C111     1.0000 0.60690  0.79230  0.55090  Biso   1.000  C
  H197     1.0000 0.58350  0.80690  0.51360  Biso   1.000  H
  H198     1.0000 0.65500  0.80670  0.54850  Biso   1.000  H
  C112     1.0000 0.89600  0.21600  0.55520  Biso   1.000  C
  H199     1.0000 0.84920  0.19790  0.55340  Biso   1.000  H
  H200     1.0000 0.92170  0.19830  0.52020  Biso   1.000  H
  C113     1.0000 0.52170  0.06230  0.68660  Biso   1.000  C
  H201     1.0000 0.56620  0.08490  0.68210  Biso   1.000  H
  H202     1.0000 0.49240  0.07580  0.65240  Biso   1.000  H
  C114     1.0000 0.98820  0.08370  0.75320  Biso   1.000  C
  H203     1.0000 0.94520  0.10750  0.76190  Biso   1.000  H
  H204     1.0000 0.01900  0.11450  0.73160  Biso   1.000  H
  C115     1.0000 0.57310  0.97230  0.73830  Biso   1.000  C
  H205     1.0000 0.58130  0.92400  0.73830  Biso   1.000  H
  H206     1.0000 0.61780  0.99480  0.73590  Biso   1.000  H
  C116     1.0000 0.03790  0.99170  0.70330  Biso   1.000  C
  H207     1.0000 0.06850  0.02060  0.67950  Biso   1.000  H
  H208     1.0000 0.02880  0.95150  0.67910  Biso   1.000  H
  C117     1.0000 0.46470  0.95900  0.69260  Biso   1.000  C
  H209     1.0000 0.43550  0.97060  0.65770  Biso   1.000  H
  H210     1.0000 0.47010  0.91030  0.69310  Biso   1.000  H
  C118     1.0000 0.92960  0.98120  0.74880  Biso   1.000  C
  H211     1.0000 0.91880  0.94190  0.72380  Biso   1.000  H
  H212     1.0000 0.88630  0.00370  0.75880  Biso   1.000  H
  C119     1.0000 0.02210  0.96270  0.52600  Biso   1.000  C
  C120     1.0000 0.02290  0.01560  0.51830  Biso   1.000  C
  H213     1.0000 0.05490  0.93460  0.56520  Biso   1.000  H
  C121     1.0000 0.01970  0.09540  0.49280  Biso   1.000  C
  H214     1.0000 0.01890  0.14070  0.48150  Biso   1.000  H
  C122     1.0000 0.06470  0.07370  0.53710  Biso   1.000  C
  H215     1.0000 0.09460  0.10430  0.55610  Biso   1.000  H
  C123     1.0000 0.06590  0.00740  0.55370  Biso   1.000  C
  H216     1.0000 0.09670  0.99270  0.58400  Biso   1.000  H
  H217     1.0000 0.03540  0.09400  0.57140  Biso   1.000  H
  H218     1.0000 0.09280  0.08660  0.52050  Biso   1.000  H
  H219     1.0000 0.02290  0.91740  0.53730  Biso   1.000  H
  C124     1.0000 0.97590  0.05070  0.46510  Biso   1.000  C
  C125     1.0000 0.93550  0.93740  0.45030  Biso   1.000  C
  H220     1.0000 0.90620  0.96060  0.42140  Biso   1.000  H
  Na11     1.0000 0.91873  0.05156  0.08677  Biso   1.000  Na
  Na12     1.0000 0.55376  0.93134  0.10775  Biso   1.000  Na
  N31      1.0000 0.79500  0.01581  0.08830  Biso   1.000  N
  N32      1.0000 0.66921  0.97527  0.09303  Biso   1.000  N
  N33      1.0000 0.92550  0.17704  0.10350  Biso   1.000  N
  N34      1.0000 0.57140  0.80559  0.11120  Biso   1.000  N
  N35      1.0000 0.96800  0.00983  0.18504  Biso   1.000  N
  N36      1.0000 0.52630  0.97360  0.21417  Biso   1.000  N
  C126     1.0000 0.78000  0.98050  0.14560  Biso   1.000  C
  H221     1.0000 0.81360  0.94460  0.15140  Biso   1.000  H
  H222     1.0000 0.78420  0.01160  0.17990  Biso   1.000  H
  C127     1.0000 0.70790  0.95120  0.14480  Biso   1.000  C
  H223     1.0000 0.68400  0.96330  0.18260  Biso   1.000  H
  H224     1.0000 0.71090  0.90230  0.14300  Biso   1.000  H
  C128     1.0000 0.77920  0.96980  0.03840  Biso   1.000  C
  H225     1.0000 0.79160  0.99060  0.99940  Biso   1.000  H
  H226     1.0000 0.80670  0.92900  0.04310  Biso   1.000  H
  C129     1.0000 0.70330  0.95170  0.03780  Biso   1.000  C
  H227     1.0000 0.69830  0.90310  0.03460  Biso   1.000  H
  H228     1.0000 0.68130  0.97190  0.00190  Biso   1.000  H
  C130     1.0000 0.74710  0.07190  0.08430  Biso   1.000  C
  H229     1.0000 0.75820  0.10480  0.11580  Biso   1.000  H
  H230     1.0000 0.75190  0.09350  0.04430  Biso   1.000  H
  C131     1.0000 0.67250  0.04770  0.09260  Biso   1.000  C
  H231     1.0000 0.64390  0.06500  0.05930  Biso   1.000  H
  H232     1.0000 0.65410  0.06510  0.13120  Biso   1.000  H
  C132     1.0000 0.99610  0.20180  0.10630  Biso   1.000  C
  H233     1.0000 0.01970  0.18160  0.14120  Biso   1.000  H
  H234     1.0000 0.02070  0.18890  0.06910  Biso   1.000  H
  C133     1.0000 0.50280  0.77750  0.11270  Biso   1.000  C
  H235     1.0000 0.47550  0.79670  0.07940  Biso   1.000  H
  H236     1.0000 0.48070  0.78950  0.15140  Biso   1.000  H
  C134     1.0000 0.89060  0.20010  0.15790  Biso   1.000  C
  H237     1.0000 0.84320  0.18350  0.15780  Biso   1.000  H
  H238     1.0000 0.91380  0.18200  0.19400  Biso   1.000  H
  C135     1.0000 0.61000  0.77650  0.16150  Biso   1.000  C
  H239     1.0000 0.58970  0.79070  0.20040  Biso   1.000  H
  H240     1.0000 0.65760  0.79250  0.16020  Biso   1.000  H
  C136     1.0000 0.89310  0.20770  0.05090  Biso   1.000  C
  H241     1.0000 0.91650  0.19310  0.01360  Biso   1.000  H
  H242     1.0000 0.84500  0.19330  0.04850  Biso   1.000  H
  C137     1.0000 0.60400  0.78400  0.05520  Biso   1.000  C
  H243     1.0000 0.65080  0.80210  0.05340  Biso   1.000  H
  H244     1.0000 0.57830  0.80170  0.02020  Biso   1.000  H
  C138     1.0000 0.97830  0.93770  0.18660  Biso   1.000  C
  H245     1.0000 0.93380  0.91510  0.18210  Biso   1.000  H
  H246     1.0000 0.00760  0.92420  0.15240  Biso   1.000  H
  C139     1.0000 0.51180  0.91630  0.25320  Biso   1.000  C
  H247     1.0000 0.55480  0.89250  0.26190  Biso   1.000  H
  H248     1.0000 0.48100  0.88550  0.23160  Biso   1.000  H
  C140     1.0000 0.92690  0.02770  0.23830  Biso   1.000  C
  H249     1.0000 0.91870  0.07600  0.23830  Biso   1.000  H
  H250     1.0000 0.88220  0.00520  0.23590  Biso   1.000  H
  C141     1.0000 0.46210  0.00830  0.20330  Biso   1.000  C
  H251     1.0000 0.43150  0.97940  0.17950  Biso   1.000  H
  H252     1.0000 0.47120  0.04850  0.17910  Biso   1.000  H
  C142     1.0000 0.03530  0.04100  0.19260  Biso   1.000  C
  H253     1.0000 0.06450  0.02940  0.15770  Biso   1.000  H
  H254     1.0000 0.02990  0.08970  0.19310  Biso   1.000  H
  C143     1.0000 0.57040  0.01880  0.24880  Biso   1.000  C
  H255     1.0000 0.58120  0.05810  0.22380  Biso   1.000  H
  H256     1.0000 0.61370  0.99630  0.25880  Biso   1.000  H
  C144     1.0000 0.47790  0.03730  0.02600  Biso   1.000  C
  C145     1.0000 0.47710  0.98440  0.01830  Biso   1.000  C
  H257     1.0000 0.44510  0.06540  0.06520  Biso   1.000  H
  C146     1.0000 0.48030  0.90460  0.99280  Biso   1.000  C
  H258     1.0000 0.48110  0.85930  0.98150  Biso   1.000  H
  C147     1.0000 0.43530  0.92630  0.03710  Biso   1.000  C
  H259     1.0000 0.40540  0.89570  0.05610  Biso   1.000  H
  C148     1.0000 0.43410  0.99260  0.05370  Biso   1.000  C
  H260     1.0000 0.40330  0.00730  0.08400  Biso   1.000  H
  H261     1.0000 0.46460  0.90600  0.07140  Biso   1.000  H
  H262     1.0000 0.40720  0.91340  0.02050  Biso   1.000  H
  H263     1.0000 0.47710  0.08260  0.03730  Biso   1.000  H
  C149     1.0000 0.52410  0.94930  0.96510  Biso   1.000  C
  C150     1.0000 0.56450  0.06260  0.95030  Biso   1.000  C
  H264     1.0000 0.59380  0.03940  0.92140  Biso   1.000  H
  Na13     1.0000 0.41873  0.44844  0.91323  Biso   1.000  Na
  Na14     1.0000 0.05376  0.56866  0.89225  Biso   1.000  Na
  N37      1.0000 0.29500  0.48419  0.91170  Biso   1.000  N
  N38      1.0000 0.16921  0.52473  0.90697  Biso   1.000  N
  N39      1.0000 0.42550  0.32296  0.89650  Biso   1.000  N
  N40      1.0000 0.07140  0.69441  0.88880  Biso   1.000  N
  N41      1.0000 0.46800  0.49017  0.81496  Biso   1.000  N
  N42      1.0000 0.02630  0.52640  0.78583  Biso   1.000  N
  C151     1.0000 0.28000  0.51950  0.85440  Biso   1.000  C
  H265     1.0000 0.31360  0.55540  0.84860  Biso   1.000  H
  H266     1.0000 0.28420  0.48840  0.82010  Biso   1.000  H
  C152     1.0000 0.20790  0.54880  0.85520  Biso   1.000  C
  H267     1.0000 0.18400  0.53670  0.81740  Biso   1.000  H
  H268     1.0000 0.21090  0.59770  0.85700  Biso   1.000  H
  C153     1.0000 0.27920  0.53020  0.96160  Biso   1.000  C
  H269     1.0000 0.29160  0.50940  0.00060  Biso   1.000  H
  H270     1.0000 0.30670  0.57100  0.95690  Biso   1.000  H
  C154     1.0000 0.20330  0.54830  0.96220  Biso   1.000  C
  H271     1.0000 0.19830  0.59690  0.96540  Biso   1.000  H
  H272     1.0000 0.18130  0.52810  0.99810  Biso   1.000  H
  C155     1.0000 0.24710  0.42810  0.91570  Biso   1.000  C
  H273     1.0000 0.25820  0.39520  0.88420  Biso   1.000  H
  H274     1.0000 0.25190  0.40650  0.95570  Biso   1.000  H
  C156     1.0000 0.17250  0.45230  0.90740  Biso   1.000  C
  H275     1.0000 0.14390  0.43500  0.94070  Biso   1.000  H
  H276     1.0000 0.15410  0.43490  0.86880  Biso   1.000  H
  C157     1.0000 0.49610  0.29820  0.89370  Biso   1.000  C
  H277     1.0000 0.51970  0.31840  0.85880  Biso   1.000  H
  H278     1.0000 0.52070  0.31110  0.93090  Biso   1.000  H
  C158     1.0000 0.00280  0.72250  0.88730  Biso   1.000  C
  H279     1.0000 0.97550  0.70330  0.92060  Biso   1.000  H
  H280     1.0000 0.98070  0.71050  0.84860  Biso   1.000  H
  C159     1.0000 0.39060  0.29990  0.84210  Biso   1.000  C
  H281     1.0000 0.34320  0.31650  0.84220  Biso   1.000  H
  H282     1.0000 0.41380  0.31800  0.80600  Biso   1.000  H
  C160     1.0000 0.11000  0.72350  0.83850  Biso   1.000  C
  H283     1.0000 0.08970  0.70930  0.79960  Biso   1.000  H
  H284     1.0000 0.15760  0.70750  0.83980  Biso   1.000  H
  C161     1.0000 0.39310  0.29230  0.94910  Biso   1.000  C
  H285     1.0000 0.41650  0.30690  0.98640  Biso   1.000  H
  H286     1.0000 0.34500  0.30670  0.95150  Biso   1.000  H
  C162     1.0000 0.10400  0.71600  0.94480  Biso   1.000  C
  H287     1.0000 0.15080  0.69790  0.94660  Biso   1.000  H
  H288     1.0000 0.07830  0.69830  0.97980  Biso   1.000  H
  C163     1.0000 0.47830  0.56230  0.81340  Biso   1.000  C
  H289     1.0000 0.43380  0.58490  0.81790  Biso   1.000  H
  H290     1.0000 0.50760  0.57580  0.84760  Biso   1.000  H
  C164     1.0000 0.01180  0.58370  0.74680  Biso   1.000  C
  H291     1.0000 0.05480  0.60750  0.73810  Biso   1.000  H
  H292     1.0000 0.98100  0.61450  0.76840  Biso   1.000  H
  C165     1.0000 0.42690  0.47230  0.76170  Biso   1.000  C
  H293     1.0000 0.41870  0.42400  0.76170  Biso   1.000  H
  H294     1.0000 0.38220  0.49480  0.76410  Biso   1.000  H
  C166     1.0000 0.96210  0.49170  0.79670  Biso   1.000  C
  H295     1.0000 0.93150  0.52060  0.82050  Biso   1.000  H
  H296     1.0000 0.97120  0.45150  0.82090  Biso   1.000  H
  C167     1.0000 0.53530  0.45900  0.80740  Biso   1.000  C
  H297     1.0000 0.56450  0.47060  0.84230  Biso   1.000  H
  H298     1.0000 0.52990  0.41030  0.80690  Biso   1.000  H
  C168     1.0000 0.07040  0.48120  0.75120  Biso   1.000  C
  H299     1.0000 0.08120  0.44190  0.77620  Biso   1.000  H
  H300     1.0000 0.11370  0.50370  0.74120  Biso   1.000  H
  C169     1.0000 0.97790  0.46270  0.97400  Biso   1.000  C
  C170     1.0000 0.97710  0.51560  0.98170  Biso   1.000  C
  H301     1.0000 0.94510  0.43460  0.93480  Biso   1.000  H
  C171     1.0000 0.98030  0.59540  0.00720  Biso   1.000  C
  H302     1.0000 0.98110  0.64070  0.01850  Biso   1.000  H
  C172     1.0000 0.93530  0.57370  0.96290  Biso   1.000  C
  H303     1.0000 0.90540  0.60430  0.94390  Biso   1.000  H
  C173     1.0000 0.93410  0.50740  0.94630  Biso   1.000  C
  H304     1.0000 0.90330  0.49270  0.91600  Biso   1.000  H
  H305     1.0000 0.96460  0.59400  0.92860  Biso   1.000  H
  H306     1.0000 0.90720  0.58660  0.97950  Biso   1.000  H
  H307     1.0000 0.97710  0.41740  0.96270  Biso   1.000  H
  C174     1.0000 0.02410  0.55070  0.03490  Biso   1.000  C
  C175     1.0000 0.06450  0.43740  0.04970  Biso   1.000  C
  H308     1.0000 0.09380  0.46060  0.07860  Biso   1.000  H
  Na15     1.0000 0.08127  0.55156  0.41323  Biso   1.000  Na
  Na16     1.0000 0.44624  0.43134  0.39225  Biso   1.000  Na
  N43      1.0000 0.20500  0.51581  0.41170  Biso   1.000  N
  N44      1.0000 0.33079  0.47527  0.40697  Biso   1.000  N
  N45      1.0000 0.07450  0.67704  0.39650  Biso   1.000  N
  N46      1.0000 0.42860  0.30559  0.38880  Biso   1.000  N
  N47      1.0000 0.03200  0.50983  0.31496  Biso   1.000  N
  N48      1.0000 0.47370  0.47360  0.28583  Biso   1.000  N
  C176     1.0000 0.22000  0.48050  0.35440  Biso   1.000  C
  H309     1.0000 0.18640  0.44460  0.34860  Biso   1.000  H
  H310     1.0000 0.21580  0.51160  0.32010  Biso   1.000  H
  C177     1.0000 0.29210  0.45120  0.35520  Biso   1.000  C
  H311     1.0000 0.31600  0.46330  0.31740  Biso   1.000  H
  H312     1.0000 0.28910  0.40230  0.35700  Biso   1.000  H
  C178     1.0000 0.22080  0.46980  0.46160  Biso   1.000  C
  H313     1.0000 0.20840  0.49060  0.50060  Biso   1.000  H
  H314     1.0000 0.19330  0.42900  0.45690  Biso   1.000  H
  C179     1.0000 0.29670  0.45170  0.46220  Biso   1.000  C
  H315     1.0000 0.30170  0.40310  0.46540  Biso   1.000  H
  H316     1.0000 0.31870  0.47190  0.49810  Biso   1.000  H
  C180     1.0000 0.25290  0.57190  0.41570  Biso   1.000  C
  H317     1.0000 0.24180  0.60480  0.38420  Biso   1.000  H
  H318     1.0000 0.24810  0.59350  0.45570  Biso   1.000  H
  C181     1.0000 0.32750  0.54770  0.40740  Biso   1.000  C
  H319     1.0000 0.35610  0.56500  0.44070  Biso   1.000  H
  H320     1.0000 0.34590  0.56510  0.36880  Biso   1.000  H
  C182     1.0000 0.00390  0.70180  0.39370  Biso   1.000  C
  H321     1.0000 0.98030  0.68160  0.35880  Biso   1.000  H
  H322     1.0000 0.97930  0.68890  0.43090  Biso   1.000  H
  C183     1.0000 0.49720  0.27750  0.38730  Biso   1.000  C
  H323     1.0000 0.52450  0.29670  0.42060  Biso   1.000  H
  H324     1.0000 0.51930  0.28950  0.34860  Biso   1.000  H
  C184     1.0000 0.10940  0.70010  0.34210  Biso   1.000  C
  H325     1.0000 0.15680  0.68350  0.34220  Biso   1.000  H
  H326     1.0000 0.08620  0.68200  0.30600  Biso   1.000  H
  C185     1.0000 0.39000  0.27650  0.33850  Biso   1.000  C
  H327     1.0000 0.41030  0.29070  0.29960  Biso   1.000  H
  H328     1.0000 0.34240  0.29250  0.33980  Biso   1.000  H
  C186     1.0000 0.10690  0.70770  0.44910  Biso   1.000  C
  H329     1.0000 0.08350  0.69310  0.48640  Biso   1.000  H
  H330     1.0000 0.15500  0.69330  0.45150  Biso   1.000  H
  C187     1.0000 0.39600  0.28400  0.44480  Biso   1.000  C
  H331     1.0000 0.34920  0.30210  0.44660  Biso   1.000  H
  H332     1.0000 0.42170  0.30170  0.47980  Biso   1.000  H
  C188     1.0000 0.02170  0.43770  0.31340  Biso   1.000  C
  H333     1.0000 0.06620  0.41510  0.31790  Biso   1.000  H
  H334     1.0000 0.99240  0.42420  0.34760  Biso   1.000  H
  C189     1.0000 0.48820  0.41630  0.24680  Biso   1.000  C
  H335     1.0000 0.44520  0.39250  0.23810  Biso   1.000  H
  H336     1.0000 0.51900  0.38550  0.26840  Biso   1.000  H
  C190     1.0000 0.07310  0.52770  0.26170  Biso   1.000  C
  H337     1.0000 0.08130  0.57600  0.26170  Biso   1.000  H
  H338     1.0000 0.11780  0.50520  0.26410  Biso   1.000  H
  C191     1.0000 0.53790  0.50830  0.29670  Biso   1.000  C
  H339     1.0000 0.56850  0.47940  0.32050  Biso   1.000  H
  H340     1.0000 0.52880  0.54850  0.32090  Biso   1.000  H
  C192     1.0000 0.96470  0.54100  0.30740  Biso   1.000  C
  H341     1.0000 0.93550  0.52940  0.34230  Biso   1.000  H
  H342     1.0000 0.97010  0.58970  0.30690  Biso   1.000  H
  C193     1.0000 0.42960  0.51880  0.25120  Biso   1.000  C
  H343     1.0000 0.41880  0.55810  0.27620  Biso   1.000  H
  H344     1.0000 0.38630  0.49630  0.24120  Biso   1.000  H
  C194     1.0000 0.52210  0.53730  0.47400  Biso   1.000  C
  C195     1.0000 0.52290  0.48440  0.48170  Biso   1.000  C
  H345     1.0000 0.55490  0.56540  0.43480  Biso   1.000  H
  C196     1.0000 0.51970  0.40460  0.50720  Biso   1.000  C
  H346     1.0000 0.51890  0.35930  0.51850  Biso   1.000  H
  C197     1.0000 0.56470  0.42630  0.46290  Biso   1.000  C
  H347     1.0000 0.59460  0.39570  0.44390  Biso   1.000  H
  C198     1.0000 0.56590  0.49260  0.44630  Biso   1.000  C
  H348     1.0000 0.59670  0.50730  0.41600  Biso   1.000  H
  H349     1.0000 0.53540  0.40600  0.42860  Biso   1.000  H
  H350     1.0000 0.59280  0.41340  0.47950  Biso   1.000  H
  H351     1.0000 0.52290  0.58260  0.46270  Biso   1.000  H
  C199     1.0000 0.47590  0.44930  0.53490  Biso   1.000  C
  C200     1.0000 0.43550  0.56260  0.54970  Biso   1.000  C
  H352     1.0000 0.40620  0.53940  0.57860  Biso   1.000  H
