data_image0
_cell_length_a       20.845
_cell_length_b       13.071
_cell_length_c       12.4964
_cell_angle_alpha    90
_cell_angle_beta     90
_cell_angle_gamma    90

_symmetry_space_group_name_H-M    "P 1"
_symmetry_int_tables_number       1

loop_
  _symmetry_equiv_pos_as_xyz
  'x, y, z'

loop_
  _atom_site_label
  _atom_site_occupancy
  _atom_site_fract_x
  _atom_site_fract_y
  _atom_site_fract_z
  _atom_site_thermal_displace_type
  _atom_site_B_iso_or_equiv
  _atom_site_type_symbol
  Zn1      1.0000 0.02101  0.98747  0.06326  Biso   1.000  Zn
  O1       1.0000 0.98170  0.82770  0.01580  Biso   1.000  O
  O2       1.0000 0.98630  0.88820  0.17960  Biso   1.000  O
  O3       1.0000 0.90710  0.81640  0.32100  Biso   1.000  O
  H1       1.0000 0.92910  0.86000  0.29140  Biso   1.000  H
  O4       1.0000 0.52440  0.57530  0.46110  Biso   1.000  O
  O5       1.0000 0.60780  0.52970  0.56010  Biso   1.000  O
  O6       1.0000 0.72080  0.57230  0.49750  Biso   1.000  O
  H2       1.0000 0.69240  0.54620  0.53380  Biso   1.000  H
  N1       1.0000 0.10350  0.94020  0.99070  Biso   1.000  N
  N2       1.0000 0.43800  0.59890  0.65780  Biso   1.000  N
  C1       1.0000 0.96760  0.82010  0.11340  Biso   1.000  C
  C2       1.0000 0.84390  0.67400  0.27630  Biso   1.000  C
  C3       1.0000 0.89260  0.74030  0.24970  Biso   1.000  C
  C4       1.0000 0.92440  0.73640  0.14860  Biso   1.000  C
  C5       1.0000 0.91100  0.65700  0.08290  Biso   1.000  C
  H3       1.0000 0.93280  0.65230  0.01820  Biso   1.000  H
  C6       1.0000 0.86610  0.58230  0.10750  Biso   1.000  C
  C7       1.0000 0.83050  0.59070  0.20530  Biso   1.000  C
  C8       1.0000 0.78280  0.51650  0.22720  Biso   1.000  C
  H4       1.0000 0.75970  0.52000  0.29070  Biso   1.000  H
  C9       1.0000 0.77030  0.43860  0.15500  Biso   1.000  C
  H5       1.0000 0.73870  0.39060  0.17030  Biso   1.000  H
  C10      1.0000 0.80480  0.43150  0.05930  Biso   1.000  C
  H6       1.0000 0.79530  0.37980  0.01080  Biso   1.000  H
  C11      1.0000 0.85170  0.49940  0.03700  Biso   1.000  C
  H7       1.0000 0.87530  0.49200  0.97420  Biso   1.000  H
  C12      1.0000 0.80730  0.68920  0.37920  Biso   1.000  C
  H8       1.0000 0.82430  0.74950  0.41450  Biso   1.000  H
  H9       1.0000 0.81600  0.63110  0.42540  Biso   1.000  H
  C13      1.0000 0.58440  0.57980  0.48500  Biso   1.000  C
  C14      1.0000 0.73510  0.70120  0.36980  Biso   1.000  C
  C15      1.0000 0.69450  0.64240  0.42960  Biso   1.000  C
  C16      1.0000 0.62630  0.64660  0.41880  Biso   1.000  C
  C17      1.0000 0.60030  0.71570  0.34800  Biso   1.000  C
  H10      1.0000 0.55610  0.71850  0.33860  Biso   1.000  H
  C18      1.0000 0.63970  0.78120  0.29060  Biso   1.000  C
  C19      1.0000 0.70750  0.77770  0.30250  Biso   1.000  C
  C20      1.0000 0.74430  0.85040  0.24750  Biso   1.000  C
  H11      1.0000 0.78870  0.84990  0.25510  Biso   1.000  H
  C21      1.0000 0.71640  0.92170  0.18300  Biso   1.000  C
  H12      1.0000 0.74210  0.97100  0.15050  Biso   1.000  H
  C22      1.0000 0.64920  0.92310  0.16420  Biso   1.000  C
  H13      1.0000 0.63100  0.96950  0.11660  Biso   1.000  H
  C23      1.0000 0.61180  0.85370  0.21840  Biso   1.000  C
  H14      1.0000 0.56760  0.85380  0.20790  Biso   1.000  H
  C24      1.0000 0.10970  0.93970  0.88400  Biso   1.000  C
  H15      1.0000 0.07910  0.97360  0.84300  Biso   1.000  H
  C25      1.0000 0.15960  0.89110  0.83250  Biso   1.000  C
  H16      1.0000 0.16180  0.89220  0.75820  Biso   1.000  H
  C26      1.0000 0.20560  0.84180  0.88920  Biso   1.000  C
  C27      1.0000 0.19850  0.83980  0.99720  Biso   1.000  C
  H17      1.0000 0.22780  0.80370  0.03880  Biso   1.000  H
  C28      1.0000 0.14730  0.89170  0.04690  Biso   1.000  C
  H18      1.0000 0.14450  0.89170  0.12120  Biso   1.000  H
  C29      1.0000 0.25080  0.77680  0.82500  Biso   1.000  C
  H19      1.0000 0.24810  0.70680  0.85000  Biso   1.000  H
  H20      1.0000 0.23700  0.77750  0.75060  Biso   1.000  H
  C30      1.0000 0.31940  0.81110  0.83000  Biso   1.000  C
  H21      1.0000 0.33350  0.81260  0.90400  Biso   1.000  H
  H22      1.0000 0.32330  0.87960  0.80100  Biso   1.000  H
  C31      1.0000 0.42400  0.58400  0.75980  Biso   1.000  C
  H23      1.0000 0.43960  0.52600  0.79430  Biso   1.000  H
  C32      1.0000 0.38590  0.65390  0.81750  Biso   1.000  C
  H24      1.0000 0.37780  0.64290  0.88980  Biso   1.000  H
  C33      1.0000 0.36050  0.73850  0.76710  Biso   1.000  C
  C34      1.0000 0.37780  0.75370  0.66190  Biso   1.000  C
  H25      1.0000 0.36350  0.81150  0.62570  Biso   1.000  H
  C35      1.0000 0.41630  0.68330  0.60970  Biso   1.000  C
  H26      1.0000 0.42750  0.69520  0.53880  Biso   1.000  H
  C36      1.0000 0.27500  0.80000  0.88000  Biso   1.000  C
  C37      1.0000 0.30200  0.80700  0.76700  Biso   1.000  C
  H27      1.0000 0.30220  0.83730  0.92800  Biso   1.000  H
  H28      1.0000 0.27480  0.72860  0.90200  Biso   1.000  H
  H29      1.0000 0.27080  0.78320  0.71510  Biso   1.000  H
  H30      1.0000 0.31360  0.87670  0.75050  Biso   1.000  H
  Zn2      1.0000 0.47899  0.48747  0.56326  Biso   1.000  Zn
  O7       1.0000 0.51830  0.32770  0.51580  Biso   1.000  O
  O8       1.0000 0.51370  0.38820  0.67960  Biso   1.000  O
  O9       1.0000 0.59290  0.31640  0.82100  Biso   1.000  O
  H31      1.0000 0.57090  0.36000  0.79140  Biso   1.000  H
  O10      1.0000 0.97560  0.07530  0.96110  Biso   1.000  O
  O11      1.0000 0.89220  0.02970  0.06010  Biso   1.000  O
  O12      1.0000 0.77920  0.07230  0.99750  Biso   1.000  O
  H32      1.0000 0.80760  0.04620  0.03380  Biso   1.000  H
  N3       1.0000 0.39650  0.44020  0.49070  Biso   1.000  N
  N4       1.0000 0.06200  0.09890  0.15780  Biso   1.000  N
  C38      1.0000 0.53240  0.32010  0.61340  Biso   1.000  C
  C39      1.0000 0.65610  0.17400  0.77630  Biso   1.000  C
  C40      1.0000 0.60740  0.24030  0.74970  Biso   1.000  C
  C41      1.0000 0.57560  0.23640  0.64860  Biso   1.000  C
  C42      1.0000 0.58900  0.15700  0.58290  Biso   1.000  C
  H33      1.0000 0.56720  0.15230  0.51820  Biso   1.000  H
  C43      1.0000 0.63390  0.08230  0.60750  Biso   1.000  C
  C44      1.0000 0.66950  0.09070  0.70530  Biso   1.000  C
  C45      1.0000 0.71720  0.01650  0.72720  Biso   1.000  C
  H34      1.0000 0.74030  0.02000  0.79070  Biso   1.000  H
  C46      1.0000 0.72970  0.93860  0.65500  Biso   1.000  C
  H35      1.0000 0.76130  0.89060  0.67030  Biso   1.000  H
  C47      1.0000 0.69520  0.93150  0.55930  Biso   1.000  C
  H36      1.0000 0.70470  0.87980  0.51080  Biso   1.000  H
  C48      1.0000 0.64830  0.99940  0.53700  Biso   1.000  C
  H37      1.0000 0.62470  0.99200  0.47420  Biso   1.000  H
  C49      1.0000 0.69270  0.18920  0.87920  Biso   1.000  C
  H38      1.0000 0.67570  0.24950  0.91450  Biso   1.000  H
  H39      1.0000 0.68400  0.13110  0.92540  Biso   1.000  H
  C50      1.0000 0.91560  0.07980  0.98500  Biso   1.000  C
  C51      1.0000 0.76490  0.20120  0.86980  Biso   1.000  C
  C52      1.0000 0.80550  0.14240  0.92960  Biso   1.000  C
  C53      1.0000 0.87370  0.14660  0.91880  Biso   1.000  C
  C54      1.0000 0.89970  0.21570  0.84800  Biso   1.000  C
  H40      1.0000 0.94390  0.21850  0.83860  Biso   1.000  H
  C55      1.0000 0.86030  0.28120  0.79060  Biso   1.000  C
  C56      1.0000 0.79250  0.27770  0.80250  Biso   1.000  C
  C57      1.0000 0.75570  0.35040  0.74750  Biso   1.000  C
  H41      1.0000 0.71130  0.34990  0.75510  Biso   1.000  H
  C58      1.0000 0.78360  0.42170  0.68300  Biso   1.000  C
  H42      1.0000 0.75790  0.47100  0.65050  Biso   1.000  H
  C59      1.0000 0.85080  0.42310  0.66420  Biso   1.000  C
  H43      1.0000 0.86900  0.46950  0.61660  Biso   1.000  H
  C60      1.0000 0.88820  0.35370  0.71840  Biso   1.000  C
  H44      1.0000 0.93240  0.35380  0.70790  Biso   1.000  H
  C61      1.0000 0.39030  0.43970  0.38400  Biso   1.000  C
  H45      1.0000 0.42090  0.47360  0.34300  Biso   1.000  H
  C62      1.0000 0.34040  0.39110  0.33250  Biso   1.000  C
  H46      1.0000 0.33820  0.39220  0.25820  Biso   1.000  H
  C63      1.0000 0.29440  0.34180  0.38920  Biso   1.000  C
  C64      1.0000 0.30150  0.33980  0.49720  Biso   1.000  C
  H47      1.0000 0.27220  0.30370  0.53880  Biso   1.000  H
  C65      1.0000 0.35270  0.39170  0.54690  Biso   1.000  C
  H48      1.0000 0.35550  0.39170  0.62120  Biso   1.000  H
  C66      1.0000 0.24920  0.27680  0.32500  Biso   1.000  C
  H49      1.0000 0.25190  0.20680  0.35000  Biso   1.000  H
  H50      1.0000 0.26300  0.27750  0.25060  Biso   1.000  H
  C67      1.0000 0.18060  0.31110  0.33000  Biso   1.000  C
  H51      1.0000 0.16650  0.31260  0.40400  Biso   1.000  H
  H52      1.0000 0.17670  0.37960  0.30100  Biso   1.000  H
  C68      1.0000 0.07600  0.08400  0.25980  Biso   1.000  C
  H53      1.0000 0.06040  0.02600  0.29430  Biso   1.000  H
  C69      1.0000 0.11410  0.15390  0.31750  Biso   1.000  C
  H54      1.0000 0.12220  0.14290  0.38980  Biso   1.000  H
  C70      1.0000 0.13950  0.23850  0.26710  Biso   1.000  C
  C71      1.0000 0.12220  0.25370  0.16190  Biso   1.000  C
  H55      1.0000 0.13650  0.31150  0.12570  Biso   1.000  H
  C72      1.0000 0.08370  0.18330  0.10970  Biso   1.000  C
  H56      1.0000 0.07250  0.19520  0.03880  Biso   1.000  H
  C73      1.0000 0.22500  0.30000  0.38000  Biso   1.000  C
  C74      1.0000 0.19800  0.30700  0.26700  Biso   1.000  C
  H57      1.0000 0.19780  0.33730  0.42800  Biso   1.000  H
  H58      1.0000 0.22520  0.22860  0.40200  Biso   1.000  H
  H59      1.0000 0.22920  0.28320  0.21510  Biso   1.000  H
  H60      1.0000 0.18640  0.37670  0.25050  Biso   1.000  H
  Zn3      1.0000 0.97899  0.01253  0.56326  Biso   1.000  Zn
  O13      1.0000 0.01830  0.17230  0.51580  Biso   1.000  O
  O14      1.0000 0.01370  0.11180  0.67960  Biso   1.000  O
  O15      1.0000 0.09290  0.18360  0.82100  Biso   1.000  O
  H61      1.0000 0.07090  0.14000  0.79140  Biso   1.000  H
  O16      1.0000 0.47560  0.42470  0.96110  Biso   1.000  O
  O17      1.0000 0.39220  0.47030  0.06010  Biso   1.000  O
  O18      1.0000 0.27920  0.42770  0.99750  Biso   1.000  O
  H62      1.0000 0.30760  0.45380  0.03380  Biso   1.000  H
  N5       1.0000 0.89650  0.05980  0.49070  Biso   1.000  N
  N6       1.0000 0.56200  0.40110  0.15780  Biso   1.000  N
  C75      1.0000 0.03240  0.17990  0.61340  Biso   1.000  C
  C76      1.0000 0.15610  0.32600  0.77630  Biso   1.000  C
  C77      1.0000 0.10740  0.25970  0.74970  Biso   1.000  C
  C78      1.0000 0.07560  0.26360  0.64860  Biso   1.000  C
  C79      1.0000 0.08900  0.34300  0.58290  Biso   1.000  C
  H63      1.0000 0.06720  0.34770  0.51820  Biso   1.000  H
  C80      1.0000 0.13390  0.41770  0.60750  Biso   1.000  C
  C81      1.0000 0.16950  0.40930  0.70530  Biso   1.000  C
  C82      1.0000 0.21720  0.48350  0.72720  Biso   1.000  C
  H64      1.0000 0.24030  0.48000  0.79070  Biso   1.000  H
  C83      1.0000 0.22970  0.56140  0.65500  Biso   1.000  C
  H65      1.0000 0.26130  0.60940  0.67030  Biso   1.000  H
  C84      1.0000 0.19520  0.56850  0.55930  Biso   1.000  C
  H66      1.0000 0.20470  0.62020  0.51080  Biso   1.000  H
  C85      1.0000 0.14830  0.50060  0.53700  Biso   1.000  C
  H67      1.0000 0.12470  0.50800  0.47420  Biso   1.000  H
  C86      1.0000 0.19270  0.31080  0.87920  Biso   1.000  C
  H68      1.0000 0.17570  0.25050  0.91450  Biso   1.000  H
  H69      1.0000 0.18400  0.36890  0.92540  Biso   1.000  H
  C87      1.0000 0.41560  0.42020  0.98500  Biso   1.000  C
  C88      1.0000 0.26490  0.29880  0.86980  Biso   1.000  C
  C89      1.0000 0.30550  0.35760  0.92960  Biso   1.000  C
  C90      1.0000 0.37370  0.35340  0.91880  Biso   1.000  C
  C91      1.0000 0.39970  0.28430  0.84800  Biso   1.000  C
  H70      1.0000 0.44390  0.28150  0.83860  Biso   1.000  H
  C92      1.0000 0.36030  0.21880  0.79060  Biso   1.000  C
  C93      1.0000 0.29250  0.22230  0.80250  Biso   1.000  C
  C94      1.0000 0.25570  0.14960  0.74750  Biso   1.000  C
  H71      1.0000 0.21130  0.15010  0.75510  Biso   1.000  H
  C95      1.0000 0.28360  0.07830  0.68300  Biso   1.000  C
  H72      1.0000 0.25790  0.02900  0.65050  Biso   1.000  H
  C96      1.0000 0.35080  0.07690  0.66420  Biso   1.000  C
  H73      1.0000 0.36900  0.03050  0.61660  Biso   1.000  H
  C97      1.0000 0.38820  0.14630  0.71840  Biso   1.000  C
  H74      1.0000 0.43240  0.14620  0.70790  Biso   1.000  H
  C98      1.0000 0.89030  0.06030  0.38400  Biso   1.000  C
  H75      1.0000 0.92090  0.02640  0.34300  Biso   1.000  H
  C99      1.0000 0.84040  0.10890  0.33250  Biso   1.000  C
  H76      1.0000 0.83820  0.10780  0.25820  Biso   1.000  H
  C100     1.0000 0.79440  0.15820  0.38920  Biso   1.000  C
  C101     1.0000 0.80150  0.16020  0.49720  Biso   1.000  C
  H77      1.0000 0.77220  0.19630  0.53880  Biso   1.000  H
  C102     1.0000 0.85270  0.10830  0.54690  Biso   1.000  C
  H78      1.0000 0.85550  0.10830  0.62120  Biso   1.000  H
  C103     1.0000 0.74920  0.22320  0.32500  Biso   1.000  C
  H79      1.0000 0.75190  0.29320  0.35000  Biso   1.000  H
  H80      1.0000 0.76300  0.22250  0.25060  Biso   1.000  H
  C104     1.0000 0.68060  0.18890  0.33000  Biso   1.000  C
  H81      1.0000 0.66650  0.18740  0.40400  Biso   1.000  H
  H82      1.0000 0.67670  0.12040  0.30100  Biso   1.000  H
  C105     1.0000 0.57600  0.41600  0.25980  Biso   1.000  C
  H83      1.0000 0.56040  0.47400  0.29430  Biso   1.000  H
  C106     1.0000 0.61410  0.34610  0.31750  Biso   1.000  C
  H84      1.0000 0.62220  0.35710  0.38980  Biso   1.000  H
  C107     1.0000 0.63950  0.26150  0.26710  Biso   1.000  C
  C108     1.0000 0.62220  0.24630  0.16190  Biso   1.000  C
  H85      1.0000 0.63650  0.18850  0.12570  Biso   1.000  H
  C109     1.0000 0.58370  0.31670  0.10970  Biso   1.000  C
  H86      1.0000 0.57250  0.30480  0.03880  Biso   1.000  H
  C110     1.0000 0.72500  0.20000  0.38000  Biso   1.000  C
  C111     1.0000 0.69800  0.19300  0.26700  Biso   1.000  C
  H87      1.0000 0.69780  0.16270  0.42800  Biso   1.000  H
  H88      1.0000 0.72520  0.27140  0.40200  Biso   1.000  H
  H89      1.0000 0.72920  0.21680  0.21510  Biso   1.000  H
  H90      1.0000 0.68640  0.12330  0.25050  Biso   1.000  H
  Zn4      1.0000 0.52101  0.51253  0.06326  Biso   1.000  Zn
  O19      1.0000 0.48170  0.67230  0.01580  Biso   1.000  O
  O20      1.0000 0.48630  0.61180  0.17960  Biso   1.000  O
  O21      1.0000 0.40710  0.68360  0.32100  Biso   1.000  O
  H91      1.0000 0.42910  0.64000  0.29140  Biso   1.000  H
  O22      1.0000 0.02440  0.92470  0.46110  Biso   1.000  O
  O23      1.0000 0.10780  0.97030  0.56010  Biso   1.000  O
  O24      1.0000 0.22080  0.92770  0.49750  Biso   1.000  O
  H92      1.0000 0.19240  0.95380  0.53380  Biso   1.000  H
  N7       1.0000 0.60350  0.55980  0.99070  Biso   1.000  N
  N8       1.0000 0.93800  0.90110  0.65780  Biso   1.000  N
  C112     1.0000 0.46760  0.67990  0.11340  Biso   1.000  C
  C113     1.0000 0.34390  0.82600  0.27630  Biso   1.000  C
  C114     1.0000 0.39260  0.75970  0.24970  Biso   1.000  C
  C115     1.0000 0.42440  0.76360  0.14860  Biso   1.000  C
  C116     1.0000 0.41100  0.84300  0.08290  Biso   1.000  C
  H93      1.0000 0.43280  0.84770  0.01820  Biso   1.000  H
  C117     1.0000 0.36610  0.91770  0.10750  Biso   1.000  C
  C118     1.0000 0.33050  0.90930  0.20530  Biso   1.000  C
  C119     1.0000 0.28280  0.98350  0.22720  Biso   1.000  C
  H94      1.0000 0.25970  0.98000  0.29070  Biso   1.000  H
  C120     1.0000 0.27030  0.06140  0.15500  Biso   1.000  C
  H95      1.0000 0.23870  0.10940  0.17030  Biso   1.000  H
  C121     1.0000 0.30480  0.06850  0.05930  Biso   1.000  C
  H96      1.0000 0.29530  0.12020  0.01080  Biso   1.000  H
  C122     1.0000 0.35170  0.00060  0.03700  Biso   1.000  C
  H97      1.0000 0.37530  0.00800  0.97420  Biso   1.000  H
  C123     1.0000 0.30730  0.81080  0.37920  Biso   1.000  C
  H98      1.0000 0.32430  0.75050  0.41450  Biso   1.000  H
  H99      1.0000 0.31600  0.86890  0.42540  Biso   1.000  H
  C124     1.0000 0.08440  0.92020  0.48500  Biso   1.000  C
  C125     1.0000 0.23510  0.79880  0.36980  Biso   1.000  C
  C126     1.0000 0.19450  0.85760  0.42960  Biso   1.000  C
  C127     1.0000 0.12630  0.85340  0.41880  Biso   1.000  C
  C128     1.0000 0.10030  0.78430  0.34800  Biso   1.000  C
  H100     1.0000 0.05610  0.78150  0.33860  Biso   1.000  H
  C129     1.0000 0.13970  0.71880  0.29060  Biso   1.000  C
  C130     1.0000 0.20750  0.72230  0.30250  Biso   1.000  C
  C131     1.0000 0.24430  0.64960  0.24750  Biso   1.000  C
  H101     1.0000 0.28870  0.65010  0.25510  Biso   1.000  H
  C132     1.0000 0.21640  0.57830  0.18300  Biso   1.000  C
  H102     1.0000 0.24210  0.52900  0.15050  Biso   1.000  H
  C133     1.0000 0.14920  0.57690  0.16420  Biso   1.000  C
  H103     1.0000 0.13100  0.53050  0.11660  Biso   1.000  H
  C134     1.0000 0.11180  0.64630  0.21840  Biso   1.000  C
  H104     1.0000 0.06760  0.64620  0.20790  Biso   1.000  H
  C135     1.0000 0.60970  0.56030  0.88400  Biso   1.000  C
  H105     1.0000 0.57910  0.52640  0.84300  Biso   1.000  H
  C136     1.0000 0.65960  0.60890  0.83250  Biso   1.000  C
  H106     1.0000 0.66180  0.60780  0.75820  Biso   1.000  H
  C137     1.0000 0.70560  0.65820  0.88920  Biso   1.000  C
  C138     1.0000 0.69850  0.66020  0.99720  Biso   1.000  C
  H107     1.0000 0.72780  0.69630  0.03880  Biso   1.000  H
  C139     1.0000 0.64730  0.60830  0.04690  Biso   1.000  C
  H108     1.0000 0.64450  0.60830  0.12120  Biso   1.000  H
  C140     1.0000 0.75080  0.72320  0.82500  Biso   1.000  C
  H109     1.0000 0.74810  0.79320  0.85000  Biso   1.000  H
  H110     1.0000 0.73700  0.72250  0.75060  Biso   1.000  H
  C141     1.0000 0.81940  0.68890  0.83000  Biso   1.000  C
  H111     1.0000 0.83350  0.68740  0.90400  Biso   1.000  H
  H112     1.0000 0.82330  0.62040  0.80100  Biso   1.000  H
  C142     1.0000 0.92400  0.91600  0.75980  Biso   1.000  C
  H113     1.0000 0.93960  0.97400  0.79430  Biso   1.000  H
  C143     1.0000 0.88590  0.84610  0.81750  Biso   1.000  C
  H114     1.0000 0.87780  0.85710  0.88980  Biso   1.000  H
  C144     1.0000 0.86050  0.76150  0.76710  Biso   1.000  C
  C145     1.0000 0.87780  0.74630  0.66190  Biso   1.000  C
  H115     1.0000 0.86350  0.68850  0.62570  Biso   1.000  H
  C146     1.0000 0.91630  0.81670  0.60970  Biso   1.000  C
  H116     1.0000 0.92750  0.80480  0.53880  Biso   1.000  H
  C147     1.0000 0.77500  0.70000  0.88000  Biso   1.000  C
  C148     1.0000 0.80200  0.69300  0.76700  Biso   1.000  C
  H117     1.0000 0.80220  0.66270  0.92800  Biso   1.000  H
  H118     1.0000 0.77480  0.77140  0.90200  Biso   1.000  H
  H119     1.0000 0.77080  0.71680  0.71510  Biso   1.000  H
  H120     1.0000 0.81360  0.62330  0.75050  Biso   1.000  H
