data_image0
_cell_length_a       15.439
_cell_length_b       15.439
_cell_length_c       28.034
_cell_angle_alpha    90
_cell_angle_beta     90
_cell_angle_gamma    90

_symmetry_space_group_name_H-M    "P 1"
_symmetry_int_tables_number       1

loop_
  _symmetry_equiv_pos_as_xyz
  'x, y, z'

loop_
  _atom_site_label
  _atom_site_occupancy
  _atom_site_fract_x
  _atom_site_fract_y
  _atom_site_fract_z
  _atom_site_thermal_displace_type
  _atom_site_B_iso_or_equiv
  _atom_site_type_symbol
  O1       1.0000 0.10508  0.07671  0.78823  Biso   1.000  O
  C1       1.0000 0.16897  0.26539  0.77154  Biso   1.000  C
  C2       1.0000 0.08680  0.28440  0.79351  Biso   1.000  C
  H1       1.0000 0.04240  0.24180  0.79370  Biso   1.000  H
  C3       1.0000 0.07250  0.36220  0.81380  Biso   1.000  C
  H2       1.0000 0.01820  0.37370  0.82830  Biso   1.000  H
  C4       1.0000 0.04630  0.94410  0.94870  Biso   1.000  C
  H3       1.0000 0.08320  0.90320  0.96460  Biso   1.000  H
  C5       1.0000 0.04260  0.94770  0.89910  Biso   1.000  C
  H4       1.0000 0.07440  0.90440  0.88180  Biso   1.000  H
  O2       1.0000 0.60508  0.57671  0.28823  Biso   1.000  O
  C6       1.0000 0.66897  0.76539  0.27154  Biso   1.000  C
  C7       1.0000 0.58680  0.78440  0.29351  Biso   1.000  C
  H5       1.0000 0.54240  0.74180  0.29370  Biso   1.000  H
  C8       1.0000 0.57250  0.86220  0.31380  Biso   1.000  C
  H6       1.0000 0.51820  0.87370  0.32830  Biso   1.000  H
  C9       1.0000 0.54630  0.44410  0.44870  Biso   1.000  C
  H7       1.0000 0.58320  0.40320  0.46460  Biso   1.000  H
  C10      1.0000 0.54260  0.44770  0.39910  Biso   1.000  C
  H8       1.0000 0.57440  0.40440  0.38180  Biso   1.000  H
  O3       1.0000 0.89492  0.92329  0.78823  Biso   1.000  O
  C11      1.0000 0.83103  0.73461  0.77154  Biso   1.000  C
  C12      1.0000 0.91320  0.71560  0.79351  Biso   1.000  C
  H9       1.0000 0.95760  0.75820  0.79370  Biso   1.000  H
  C13      1.0000 0.92750  0.63780  0.81380  Biso   1.000  C
  H10      1.0000 0.98180  0.62630  0.82830  Biso   1.000  H
  C14      1.0000 0.95370  0.05590  0.94870  Biso   1.000  C
  H11      1.0000 0.91680  0.09680  0.96460  Biso   1.000  H
  C15      1.0000 0.95740  0.05230  0.89910  Biso   1.000  C
  H12      1.0000 0.92560  0.09560  0.88180  Biso   1.000  H
  O4       1.0000 0.39492  0.42329  0.28823  Biso   1.000  O
  C16      1.0000 0.33103  0.23461  0.27154  Biso   1.000  C
  C17      1.0000 0.41320  0.21560  0.29351  Biso   1.000  C
  H13      1.0000 0.45760  0.25820  0.29370  Biso   1.000  H
  C18      1.0000 0.42750  0.13780  0.31380  Biso   1.000  C
  H14      1.0000 0.48180  0.12630  0.32830  Biso   1.000  H
  C19      1.0000 0.45370  0.55590  0.44870  Biso   1.000  C
  H15      1.0000 0.41680  0.59680  0.46460  Biso   1.000  H
  C20      1.0000 0.45740  0.55230  0.39910  Biso   1.000  C
  H16      1.0000 0.42560  0.59560  0.38180  Biso   1.000  H
  O5       1.0000 0.92329  0.10508  0.78823  Biso   1.000  O
  C21      1.0000 0.73461  0.16897  0.77154  Biso   1.000  C
  C22      1.0000 0.71560  0.08680  0.79351  Biso   1.000  C
  H17      1.0000 0.75820  0.04240  0.79370  Biso   1.000  H
  C23      1.0000 0.63780  0.07250  0.81380  Biso   1.000  C
  H18      1.0000 0.62630  0.01820  0.82830  Biso   1.000  H
  C24      1.0000 0.05590  0.04630  0.94870  Biso   1.000  C
  H19      1.0000 0.09680  0.08320  0.96460  Biso   1.000  H
  C25      1.0000 0.05230  0.04260  0.89910  Biso   1.000  C
  H20      1.0000 0.09560  0.07440  0.88180  Biso   1.000  H
  O6       1.0000 0.42329  0.60508  0.28823  Biso   1.000  O
  C26      1.0000 0.23461  0.66897  0.27154  Biso   1.000  C
  C27      1.0000 0.21560  0.58680  0.29351  Biso   1.000  C
  H21      1.0000 0.25820  0.54240  0.29370  Biso   1.000  H
  C28      1.0000 0.13780  0.57250  0.31380  Biso   1.000  C
  H22      1.0000 0.12630  0.51820  0.32830  Biso   1.000  H
  C29      1.0000 0.55590  0.54630  0.44870  Biso   1.000  C
  H23      1.0000 0.59680  0.58320  0.46460  Biso   1.000  H
  C30      1.0000 0.55230  0.54260  0.39910  Biso   1.000  C
  H24      1.0000 0.59560  0.57440  0.38180  Biso   1.000  H
  O7       1.0000 0.07671  0.89492  0.78823  Biso   1.000  O
  C31      1.0000 0.26539  0.83103  0.77154  Biso   1.000  C
  C32      1.0000 0.28440  0.91320  0.79351  Biso   1.000  C
  H25      1.0000 0.24180  0.95760  0.79370  Biso   1.000  H
  C33      1.0000 0.36220  0.92750  0.81380  Biso   1.000  C
  H26      1.0000 0.37370  0.98180  0.82830  Biso   1.000  H
  C34      1.0000 0.94410  0.95370  0.94870  Biso   1.000  C
  H27      1.0000 0.90320  0.91680  0.96460  Biso   1.000  H
  C35      1.0000 0.94770  0.95740  0.89910  Biso   1.000  C
  H28      1.0000 0.90440  0.92560  0.88180  Biso   1.000  H
  O8       1.0000 0.57671  0.39492  0.28823  Biso   1.000  O
  C36      1.0000 0.76539  0.33103  0.27154  Biso   1.000  C
  C37      1.0000 0.78440  0.41320  0.29351  Biso   1.000  C
  H29      1.0000 0.74180  0.45760  0.29370  Biso   1.000  H
  C38      1.0000 0.86220  0.42750  0.31380  Biso   1.000  C
  H30      1.0000 0.87370  0.48180  0.32830  Biso   1.000  H
  C39      1.0000 0.44410  0.45370  0.44870  Biso   1.000  C
  H31      1.0000 0.40320  0.41680  0.46460  Biso   1.000  H
  C40      1.0000 0.44770  0.45740  0.39910  Biso   1.000  C
  H32      1.0000 0.40440  0.42560  0.38180  Biso   1.000  H
  O9       1.0000 0.89492  0.07671  0.71177  Biso   1.000  O
  C41      1.0000 0.83103  0.26539  0.72846  Biso   1.000  C
  C42      1.0000 0.91320  0.28440  0.70649  Biso   1.000  C
  H33      1.0000 0.95760  0.24180  0.70630  Biso   1.000  H
  C43      1.0000 0.92750  0.36220  0.68620  Biso   1.000  C
  H34      1.0000 0.98180  0.37370  0.67170  Biso   1.000  H
  C44      1.0000 0.95370  0.94410  0.55130  Biso   1.000  C
  H35      1.0000 0.91680  0.90320  0.53540  Biso   1.000  H
  C45      1.0000 0.95740  0.94770  0.60090  Biso   1.000  C
  H36      1.0000 0.92560  0.90440  0.61820  Biso   1.000  H
  O10      1.0000 0.39492  0.57671  0.21177  Biso   1.000  O
  C46      1.0000 0.33103  0.76539  0.22846  Biso   1.000  C
  C47      1.0000 0.41320  0.78440  0.20649  Biso   1.000  C
  H37      1.0000 0.45760  0.74180  0.20630  Biso   1.000  H
  C48      1.0000 0.42750  0.86220  0.18620  Biso   1.000  C
  H38      1.0000 0.48180  0.87370  0.17170  Biso   1.000  H
  C49      1.0000 0.45370  0.44410  0.05130  Biso   1.000  C
  H39      1.0000 0.41680  0.40320  0.03540  Biso   1.000  H
  C50      1.0000 0.45740  0.44770  0.10090  Biso   1.000  C
  H40      1.0000 0.42560  0.40440  0.11820  Biso   1.000  H
  O11      1.0000 0.10508  0.92329  0.71177  Biso   1.000  O
  C51      1.0000 0.16897  0.73461  0.72846  Biso   1.000  C
  C52      1.0000 0.08680  0.71560  0.70649  Biso   1.000  C
  H41      1.0000 0.04240  0.75820  0.70630  Biso   1.000  H
  C53      1.0000 0.07250  0.63780  0.68620  Biso   1.000  C
  H42      1.0000 0.01820  0.62630  0.67170  Biso   1.000  H
  C54      1.0000 0.04630  0.05590  0.55130  Biso   1.000  C
  H43      1.0000 0.08320  0.09680  0.53540  Biso   1.000  H
  C55      1.0000 0.04260  0.05230  0.60090  Biso   1.000  C
  H44      1.0000 0.07440  0.09560  0.61820  Biso   1.000  H
  O12      1.0000 0.60508  0.42329  0.21177  Biso   1.000  O
  C56      1.0000 0.66897  0.23461  0.22846  Biso   1.000  C
  C57      1.0000 0.58680  0.21560  0.20649  Biso   1.000  C
  H45      1.0000 0.54240  0.25820  0.20630  Biso   1.000  H
  C58      1.0000 0.57250  0.13780  0.18620  Biso   1.000  C
  H46      1.0000 0.51820  0.12630  0.17170  Biso   1.000  H
  C59      1.0000 0.54630  0.55590  0.05130  Biso   1.000  C
  H47      1.0000 0.58320  0.59680  0.03540  Biso   1.000  H
  C60      1.0000 0.54260  0.55230  0.10090  Biso   1.000  C
  H48      1.0000 0.57440  0.59560  0.11820  Biso   1.000  H
  O13      1.0000 0.07671  0.10508  0.71177  Biso   1.000  O
  C61      1.0000 0.26539  0.16897  0.72846  Biso   1.000  C
  C62      1.0000 0.28440  0.08680  0.70649  Biso   1.000  C
  H49      1.0000 0.24180  0.04240  0.70630  Biso   1.000  H
  C63      1.0000 0.36220  0.07250  0.68620  Biso   1.000  C
  H50      1.0000 0.37370  0.01820  0.67170  Biso   1.000  H
  C64      1.0000 0.94410  0.04630  0.55130  Biso   1.000  C
  H51      1.0000 0.90320  0.08320  0.53540  Biso   1.000  H
  C65      1.0000 0.94770  0.04260  0.60090  Biso   1.000  C
  H52      1.0000 0.90440  0.07440  0.61820  Biso   1.000  H
  O14      1.0000 0.57671  0.60508  0.21177  Biso   1.000  O
  C66      1.0000 0.76539  0.66897  0.22846  Biso   1.000  C
  C67      1.0000 0.78440  0.58680  0.20649  Biso   1.000  C
  H53      1.0000 0.74180  0.54240  0.20630  Biso   1.000  H
  C68      1.0000 0.86220  0.57250  0.18620  Biso   1.000  C
  H54      1.0000 0.87370  0.51820  0.17170  Biso   1.000  H
  C69      1.0000 0.44410  0.54630  0.05130  Biso   1.000  C
  H55      1.0000 0.40320  0.58320  0.03540  Biso   1.000  H
  C70      1.0000 0.44770  0.54260  0.10090  Biso   1.000  C
  H56      1.0000 0.40440  0.57440  0.11820  Biso   1.000  H
  O15      1.0000 0.92329  0.89492  0.71177  Biso   1.000  O
  C71      1.0000 0.73461  0.83103  0.72846  Biso   1.000  C
  C72      1.0000 0.71560  0.91320  0.70649  Biso   1.000  C
  H57      1.0000 0.75820  0.95760  0.70630  Biso   1.000  H
  C73      1.0000 0.63780  0.92750  0.68620  Biso   1.000  C
  H58      1.0000 0.62630  0.98180  0.67170  Biso   1.000  H
  C74      1.0000 0.05590  0.95370  0.55130  Biso   1.000  C
  H59      1.0000 0.09680  0.91680  0.53540  Biso   1.000  H
  C75      1.0000 0.05230  0.95740  0.60090  Biso   1.000  C
  H60      1.0000 0.09560  0.92560  0.61820  Biso   1.000  H
  O16      1.0000 0.42329  0.39492  0.21177  Biso   1.000  O
  C76      1.0000 0.23461  0.33103  0.22846  Biso   1.000  C
  C77      1.0000 0.21560  0.41320  0.20649  Biso   1.000  C
  H61      1.0000 0.25820  0.45760  0.20630  Biso   1.000  H
  C78      1.0000 0.13780  0.42750  0.18620  Biso   1.000  C
  H62      1.0000 0.12630  0.48180  0.17170  Biso   1.000  H
  C79      1.0000 0.55590  0.45370  0.05130  Biso   1.000  C
  H63      1.0000 0.59680  0.41680  0.03540  Biso   1.000  H
  C80      1.0000 0.55230  0.45740  0.10090  Biso   1.000  C
  H64      1.0000 0.59560  0.42560  0.11820  Biso   1.000  H
  O17      1.0000 0.89492  0.92329  0.21177  Biso   1.000  O
  C81      1.0000 0.83103  0.73461  0.22846  Biso   1.000  C
  C82      1.0000 0.91320  0.71560  0.20649  Biso   1.000  C
  H65      1.0000 0.95760  0.75820  0.20630  Biso   1.000  H
  C83      1.0000 0.92750  0.63780  0.18620  Biso   1.000  C
  H66      1.0000 0.98180  0.62630  0.17170  Biso   1.000  H
  C84      1.0000 0.95370  0.05590  0.05130  Biso   1.000  C
  H67      1.0000 0.91680  0.09680  0.03540  Biso   1.000  H
  C85      1.0000 0.95740  0.05230  0.10090  Biso   1.000  C
  H68      1.0000 0.92560  0.09560  0.11820  Biso   1.000  H
  O18      1.0000 0.39492  0.42329  0.71177  Biso   1.000  O
  C86      1.0000 0.33103  0.23461  0.72846  Biso   1.000  C
  C87      1.0000 0.41320  0.21560  0.70649  Biso   1.000  C
  H69      1.0000 0.45760  0.25820  0.70630  Biso   1.000  H
  C88      1.0000 0.42750  0.13780  0.68620  Biso   1.000  C
  H70      1.0000 0.48180  0.12630  0.67170  Biso   1.000  H
  C89      1.0000 0.45370  0.55590  0.55130  Biso   1.000  C
  H71      1.0000 0.41680  0.59680  0.53540  Biso   1.000  H
  C90      1.0000 0.45740  0.55230  0.60090  Biso   1.000  C
  H72      1.0000 0.42560  0.59560  0.61820  Biso   1.000  H
  O19      1.0000 0.10508  0.07671  0.21177  Biso   1.000  O
  C91      1.0000 0.16897  0.26539  0.22846  Biso   1.000  C
  C92      1.0000 0.08680  0.28440  0.20649  Biso   1.000  C
  H73      1.0000 0.04240  0.24180  0.20630  Biso   1.000  H
  C93      1.0000 0.07250  0.36220  0.18620  Biso   1.000  C
  H74      1.0000 0.01820  0.37370  0.17170  Biso   1.000  H
  C94      1.0000 0.04630  0.94410  0.05130  Biso   1.000  C
  H75      1.0000 0.08320  0.90320  0.03540  Biso   1.000  H
  C95      1.0000 0.04260  0.94770  0.10090  Biso   1.000  C
  H76      1.0000 0.07440  0.90440  0.11820  Biso   1.000  H
  O20      1.0000 0.60508  0.57671  0.71177  Biso   1.000  O
  C96      1.0000 0.66897  0.76539  0.72846  Biso   1.000  C
  C97      1.0000 0.58680  0.78440  0.70649  Biso   1.000  C
  H77      1.0000 0.54240  0.74180  0.70630  Biso   1.000  H
  C98      1.0000 0.57250  0.86220  0.68620  Biso   1.000  C
  H78      1.0000 0.51820  0.87370  0.67170  Biso   1.000  H
  C99      1.0000 0.54630  0.44410  0.55130  Biso   1.000  C
  H79      1.0000 0.58320  0.40320  0.53540  Biso   1.000  H
  C100     1.0000 0.54260  0.44770  0.60090  Biso   1.000  C
  H80      1.0000 0.57440  0.40440  0.61820  Biso   1.000  H
  O21      1.0000 0.07671  0.89492  0.21177  Biso   1.000  O
  C101     1.0000 0.26539  0.83103  0.22846  Biso   1.000  C
  C102     1.0000 0.28440  0.91320  0.20649  Biso   1.000  C
  H81      1.0000 0.24180  0.95760  0.20630  Biso   1.000  H
  C103     1.0000 0.36220  0.92750  0.18620  Biso   1.000  C
  H82      1.0000 0.37370  0.98180  0.17170  Biso   1.000  H
  C104     1.0000 0.94410  0.95370  0.05130  Biso   1.000  C
  H83      1.0000 0.90320  0.91680  0.03540  Biso   1.000  H
  C105     1.0000 0.94770  0.95740  0.10090  Biso   1.000  C
  H84      1.0000 0.90440  0.92560  0.11820  Biso   1.000  H
  O22      1.0000 0.57671  0.39492  0.71177  Biso   1.000  O
  C106     1.0000 0.76539  0.33103  0.72846  Biso   1.000  C
  C107     1.0000 0.78440  0.41320  0.70649  Biso   1.000  C
  H85      1.0000 0.74180  0.45760  0.70630  Biso   1.000  H
  C108     1.0000 0.86220  0.42750  0.68620  Biso   1.000  C
  H86      1.0000 0.87370  0.48180  0.67170  Biso   1.000  H
  C109     1.0000 0.44410  0.45370  0.55130  Biso   1.000  C
  H87      1.0000 0.40320  0.41680  0.53540  Biso   1.000  H
  C110     1.0000 0.44770  0.45740  0.60090  Biso   1.000  C
  H88      1.0000 0.40440  0.42560  0.61820  Biso   1.000  H
  O23      1.0000 0.92329  0.10508  0.21177  Biso   1.000  O
  C111     1.0000 0.73461  0.16897  0.22846  Biso   1.000  C
  C112     1.0000 0.71560  0.08680  0.20649  Biso   1.000  C
  H89      1.0000 0.75820  0.04240  0.20630  Biso   1.000  H
  C113     1.0000 0.63780  0.07250  0.18620  Biso   1.000  C
  H90      1.0000 0.62630  0.01820  0.17170  Biso   1.000  H
  C114     1.0000 0.05590  0.04630  0.05130  Biso   1.000  C
  H91      1.0000 0.09680  0.08320  0.03540  Biso   1.000  H
  C115     1.0000 0.05230  0.04260  0.10090  Biso   1.000  C
  H92      1.0000 0.09560  0.07440  0.11820  Biso   1.000  H
  O24      1.0000 0.42329  0.60508  0.71177  Biso   1.000  O
  C116     1.0000 0.23461  0.66897  0.72846  Biso   1.000  C
  C117     1.0000 0.21560  0.58680  0.70649  Biso   1.000  C
  H93      1.0000 0.25820  0.54240  0.70630  Biso   1.000  H
  C118     1.0000 0.13780  0.57250  0.68620  Biso   1.000  C
  H94      1.0000 0.12630  0.51820  0.67170  Biso   1.000  H
  C119     1.0000 0.55590  0.54630  0.55130  Biso   1.000  C
  H95      1.0000 0.59680  0.58320  0.53540  Biso   1.000  H
  C120     1.0000 0.55230  0.54260  0.60090  Biso   1.000  C
  H96      1.0000 0.59560  0.57440  0.61820  Biso   1.000  H
  O25      1.0000 0.10508  0.92329  0.28823  Biso   1.000  O
  C121     1.0000 0.16897  0.73461  0.27154  Biso   1.000  C
  C122     1.0000 0.08680  0.71560  0.29351  Biso   1.000  C
  H97      1.0000 0.04240  0.75820  0.29370  Biso   1.000  H
  C123     1.0000 0.07250  0.63780  0.31380  Biso   1.000  C
  H98      1.0000 0.01820  0.62630  0.32830  Biso   1.000  H
  C124     1.0000 0.04630  0.05590  0.44870  Biso   1.000  C
  H99      1.0000 0.08320  0.09680  0.46460  Biso   1.000  H
  C125     1.0000 0.04260  0.05230  0.39910  Biso   1.000  C
  H100     1.0000 0.07440  0.09560  0.38180  Biso   1.000  H
  O26      1.0000 0.60508  0.42329  0.78823  Biso   1.000  O
  C126     1.0000 0.66897  0.23461  0.77154  Biso   1.000  C
  C127     1.0000 0.58680  0.21560  0.79351  Biso   1.000  C
  H101     1.0000 0.54240  0.25820  0.79370  Biso   1.000  H
  C128     1.0000 0.57250  0.13780  0.81380  Biso   1.000  C
  H102     1.0000 0.51820  0.12630  0.82830  Biso   1.000  H
  C129     1.0000 0.54630  0.55590  0.94870  Biso   1.000  C
  H103     1.0000 0.58320  0.59680  0.96460  Biso   1.000  H
  C130     1.0000 0.54260  0.55230  0.89910  Biso   1.000  C
  H104     1.0000 0.57440  0.59560  0.88180  Biso   1.000  H
  O27      1.0000 0.89492  0.07671  0.28823  Biso   1.000  O
  C131     1.0000 0.83103  0.26539  0.27154  Biso   1.000  C
  C132     1.0000 0.91320  0.28440  0.29351  Biso   1.000  C
  H105     1.0000 0.95760  0.24180  0.29370  Biso   1.000  H
  C133     1.0000 0.92750  0.36220  0.31380  Biso   1.000  C
  H106     1.0000 0.98180  0.37370  0.32830  Biso   1.000  H
  C134     1.0000 0.95370  0.94410  0.44870  Biso   1.000  C
  H107     1.0000 0.91680  0.90320  0.46460  Biso   1.000  H
  C135     1.0000 0.95740  0.94770  0.39910  Biso   1.000  C
  H108     1.0000 0.92560  0.90440  0.38180  Biso   1.000  H
  O28      1.0000 0.39492  0.57671  0.78823  Biso   1.000  O
  C136     1.0000 0.33103  0.76539  0.77154  Biso   1.000  C
  C137     1.0000 0.41320  0.78440  0.79351  Biso   1.000  C
  H109     1.0000 0.45760  0.74180  0.79370  Biso   1.000  H
  C138     1.0000 0.42750  0.86220  0.81380  Biso   1.000  C
  H110     1.0000 0.48180  0.87370  0.82830  Biso   1.000  H
  C139     1.0000 0.45370  0.44410  0.94870  Biso   1.000  C
  H111     1.0000 0.41680  0.40320  0.96460  Biso   1.000  H
  C140     1.0000 0.45740  0.44770  0.89910  Biso   1.000  C
  H112     1.0000 0.42560  0.40440  0.88180  Biso   1.000  H
  O29      1.0000 0.92329  0.89492  0.28823  Biso   1.000  O
  C141     1.0000 0.73461  0.83103  0.27154  Biso   1.000  C
  C142     1.0000 0.71560  0.91320  0.29351  Biso   1.000  C
  H113     1.0000 0.75820  0.95760  0.29370  Biso   1.000  H
  C143     1.0000 0.63780  0.92750  0.31380  Biso   1.000  C
  H114     1.0000 0.62630  0.98180  0.32830  Biso   1.000  H
  C144     1.0000 0.05590  0.95370  0.44870  Biso   1.000  C
  H115     1.0000 0.09680  0.91680  0.46460  Biso   1.000  H
  C145     1.0000 0.05230  0.95740  0.39910  Biso   1.000  C
  H116     1.0000 0.09560  0.92560  0.38180  Biso   1.000  H
  O30      1.0000 0.42329  0.39492  0.78823  Biso   1.000  O
  C146     1.0000 0.23461  0.33103  0.77154  Biso   1.000  C
  C147     1.0000 0.21560  0.41320  0.79351  Biso   1.000  C
  H117     1.0000 0.25820  0.45760  0.79370  Biso   1.000  H
  C148     1.0000 0.13780  0.42750  0.81380  Biso   1.000  C
  H118     1.0000 0.12630  0.48180  0.82830  Biso   1.000  H
  C149     1.0000 0.55590  0.45370  0.94870  Biso   1.000  C
  H119     1.0000 0.59680  0.41680  0.96460  Biso   1.000  H
  C150     1.0000 0.55230  0.45740  0.89910  Biso   1.000  C
  H120     1.0000 0.59560  0.42560  0.88180  Biso   1.000  H
  O31      1.0000 0.07671  0.10508  0.28823  Biso   1.000  O
  C151     1.0000 0.26539  0.16897  0.27154  Biso   1.000  C
  C152     1.0000 0.28440  0.08680  0.29351  Biso   1.000  C
  H121     1.0000 0.24180  0.04240  0.29370  Biso   1.000  H
  C153     1.0000 0.36220  0.07250  0.31380  Biso   1.000  C
  H122     1.0000 0.37370  0.01820  0.32830  Biso   1.000  H
  C154     1.0000 0.94410  0.04630  0.44870  Biso   1.000  C
  H123     1.0000 0.90320  0.08320  0.46460  Biso   1.000  H
  C155     1.0000 0.94770  0.04260  0.39910  Biso   1.000  C
  H124     1.0000 0.90440  0.07440  0.38180  Biso   1.000  H
  O32      1.0000 0.57671  0.60508  0.78823  Biso   1.000  O
  C156     1.0000 0.76539  0.66897  0.77154  Biso   1.000  C
  C157     1.0000 0.78440  0.58680  0.79351  Biso   1.000  C
  H125     1.0000 0.74180  0.54240  0.79370  Biso   1.000  H
  C158     1.0000 0.86220  0.57250  0.81380  Biso   1.000  C
  H126     1.0000 0.87370  0.51820  0.82830  Biso   1.000  H
  C159     1.0000 0.44410  0.54630  0.94870  Biso   1.000  C
  H127     1.0000 0.40320  0.58320  0.96460  Biso   1.000  H
  C160     1.0000 0.44770  0.54260  0.89910  Biso   1.000  C
  H128     1.0000 0.40440  0.57440  0.88180  Biso   1.000  H
  Zn1      1.0000 0.00000  0.00000  0.80217  Biso   1.000  Zn
  N1       1.0000 0.00000  0.00000  0.87430  Biso   1.000  N
  C161     1.0000 0.00000  0.00000  0.97310  Biso   1.000  C
  Zn2      1.0000 0.50000  0.50000  0.30217  Biso   1.000  Zn
  N2       1.0000 0.50000  0.50000  0.37430  Biso   1.000  N
  C162     1.0000 0.50000  0.50000  0.47310  Biso   1.000  C
  Zn3      1.0000 0.00000  0.00000  0.69783  Biso   1.000  Zn
  N3       1.0000 0.00000  0.00000  0.62570  Biso   1.000  N
  C163     1.0000 0.00000  0.00000  0.52690  Biso   1.000  C
  Zn4      1.0000 0.50000  0.50000  0.19783  Biso   1.000  Zn
  N4       1.0000 0.50000  0.50000  0.12570  Biso   1.000  N
  C164     1.0000 0.50000  0.50000  0.02690  Biso   1.000  C
  Zn5      1.0000 0.00000  0.00000  0.19783  Biso   1.000  Zn
  N5       1.0000 0.00000  0.00000  0.12570  Biso   1.000  N
  C165     1.0000 0.00000  0.00000  0.02690  Biso   1.000  C
  Zn6      1.0000 0.50000  0.50000  0.69783  Biso   1.000  Zn
  N6       1.0000 0.50000  0.50000  0.62570  Biso   1.000  N
  C166     1.0000 0.50000  0.50000  0.52690  Biso   1.000  C
  Zn7      1.0000 0.00000  0.00000  0.30217  Biso   1.000  Zn
  N7       1.0000 0.00000  0.00000  0.37430  Biso   1.000  N
  C167     1.0000 0.00000  0.00000  0.47310  Biso   1.000  C
  Zn8      1.0000 0.50000  0.50000  0.80217  Biso   1.000  Zn
  N8       1.0000 0.50000  0.50000  0.87430  Biso   1.000  N
  C168     1.0000 0.50000  0.50000  0.97310  Biso   1.000  C
  C169     1.0000 0.18601  0.18601  0.75000  Biso   1.000  C
  C170     1.0000 0.11674  0.11674  0.75000  Biso   1.000  C
  C171     1.0000 0.68601  0.68601  0.25000  Biso   1.000  C
  C172     1.0000 0.61674  0.61674  0.25000  Biso   1.000  C
  C173     1.0000 0.81399  0.81399  0.75000  Biso   1.000  C
  C174     1.0000 0.88326  0.88326  0.75000  Biso   1.000  C
  C175     1.0000 0.31399  0.31399  0.25000  Biso   1.000  C
  C176     1.0000 0.38326  0.38326  0.25000  Biso   1.000  C
  C177     1.0000 0.81399  0.18601  0.75000  Biso   1.000  C
  C178     1.0000 0.88326  0.11674  0.75000  Biso   1.000  C
  C179     1.0000 0.31399  0.68601  0.25000  Biso   1.000  C
  C180     1.0000 0.38326  0.61674  0.25000  Biso   1.000  C
  C181     1.0000 0.18601  0.81399  0.75000  Biso   1.000  C
  C182     1.0000 0.11674  0.88326  0.75000  Biso   1.000  C
  C183     1.0000 0.68601  0.31399  0.25000  Biso   1.000  C
  C184     1.0000 0.61674  0.38326  0.25000  Biso   1.000  C
  C185     1.0000 0.81399  0.81399  0.25000  Biso   1.000  C
  C186     1.0000 0.88326  0.88326  0.25000  Biso   1.000  C
  C187     1.0000 0.31399  0.31399  0.75000  Biso   1.000  C
  C188     1.0000 0.38326  0.38326  0.75000  Biso   1.000  C
  C189     1.0000 0.18601  0.18601  0.25000  Biso   1.000  C
  C190     1.0000 0.11674  0.11674  0.25000  Biso   1.000  C
  C191     1.0000 0.68601  0.68601  0.75000  Biso   1.000  C
  C192     1.0000 0.61674  0.61674  0.75000  Biso   1.000  C
  C193     1.0000 0.18601  0.81399  0.25000  Biso   1.000  C
  C194     1.0000 0.11674  0.88326  0.25000  Biso   1.000  C
  C195     1.0000 0.68601  0.31399  0.75000  Biso   1.000  C
  C196     1.0000 0.61674  0.38326  0.75000  Biso   1.000  C
  C197     1.0000 0.81399  0.18601  0.25000  Biso   1.000  C
  C198     1.0000 0.88326  0.11674  0.25000  Biso   1.000  C
  C199     1.0000 0.31399  0.68601  0.75000  Biso   1.000  C
  C200     1.0000 0.38326  0.61674  0.75000  Biso   1.000  C
