data_image0
_cell_length_a       10.642
_cell_length_b       16.472
_cell_length_c       12.47
_cell_angle_alpha    90
_cell_angle_beta     90
_cell_angle_gamma    90

_symmetry_space_group_name_H-M    "P 1"
_symmetry_int_tables_number       1

loop_
  _symmetry_equiv_pos_as_xyz
  'x, y, z'

loop_
  _atom_site_label
  _atom_site_occupancy
  _atom_site_fract_x
  _atom_site_fract_y
  _atom_site_fract_z
  _atom_site_thermal_displace_type
  _atom_site_B_iso_or_equiv
  _atom_site_type_symbol
  Cd1      1.0000 0.52841  0.05537  0.80700  Biso   1.000  Cd
  C1       1.0000 0.61130  0.87110  0.69350  Biso   1.000  C
  N1       1.0000 0.53290  0.68060  0.62920  Biso   1.000  N
  C2       1.0000 0.58250  0.74020  0.64200  Biso   1.000  C
  N2       1.0000 0.63830  0.80980  0.62700  Biso   1.000  N
  N3       1.0000 0.58780  0.93110  0.73230  Biso   1.000  N
  N4       1.0000 0.83880  0.88480  0.17710  Biso   1.000  N
  N5       1.0000 0.83300  0.93700  0.99270  Biso   1.000  N
  C3       1.0000 0.75850  0.99300  0.95990  Biso   1.000  C
  C4       1.0000 0.83080  0.91130  0.09230  Biso   1.000  C
  N6       1.0000 0.69750  0.04380  0.92200  Biso   1.000  N
  C5       1.0000 0.18930  0.92960  0.10830  Biso   1.000  C
  N7       1.0000 0.13210  0.93610  0.18140  Biso   1.000  N
  C6       1.0000 0.32970  0.95760  0.97600  Biso   1.000  C
  N8       1.0000 0.21800  0.92270  0.99820  Biso   1.000  N
  N9       1.0000 0.39680  0.99120  0.92480  Biso   1.000  N
  N10      1.0000 0.66150  0.79790  0.67700  Biso   1.000  N
  N11      1.0000 0.29200  0.90100  0.05510  Biso   1.000  N
  Cd2      1.0000 0.97159  0.94463  0.30700  Biso   1.000  Cd
  C7       1.0000 0.88870  0.12890  0.19350  Biso   1.000  C
  N12      1.0000 0.96710  0.31940  0.12920  Biso   1.000  N
  C8       1.0000 0.91750  0.25980  0.14200  Biso   1.000  C
  N13      1.0000 0.86170  0.19020  0.12700  Biso   1.000  N
  N14      1.0000 0.91220  0.06890  0.23230  Biso   1.000  N
  N15      1.0000 0.66120  0.11520  0.67710  Biso   1.000  N
  N16      1.0000 0.66700  0.06300  0.49270  Biso   1.000  N
  C9       1.0000 0.74150  0.00700  0.45990  Biso   1.000  C
  C10      1.0000 0.66920  0.08870  0.59230  Biso   1.000  C
  N17      1.0000 0.80250  0.95620  0.42200  Biso   1.000  N
  C11      1.0000 0.31070  0.07040  0.60830  Biso   1.000  C
  N18      1.0000 0.36790  0.06390  0.68140  Biso   1.000  N
  C12      1.0000 0.17030  0.04240  0.47600  Biso   1.000  C
  N19      1.0000 0.28200  0.07730  0.49820  Biso   1.000  N
  N20      1.0000 0.10320  0.00880  0.42480  Biso   1.000  N
  N21      1.0000 0.83850  0.20210  0.17700  Biso   1.000  N
  N22      1.0000 0.20800  0.09900  0.55510  Biso   1.000  N
  Cd3      1.0000 0.47159  0.55537  0.69300  Biso   1.000  Cd
  C13      1.0000 0.38870  0.37110  0.80650  Biso   1.000  C
  N23      1.0000 0.46710  0.18060  0.87080  Biso   1.000  N
  C14      1.0000 0.41750  0.24020  0.85800  Biso   1.000  C
  N24      1.0000 0.36170  0.30980  0.87300  Biso   1.000  N
  N25      1.0000 0.41220  0.43110  0.76770  Biso   1.000  N
  N26      1.0000 0.16120  0.38480  0.32290  Biso   1.000  N
  N27      1.0000 0.16700  0.43700  0.50730  Biso   1.000  N
  C15      1.0000 0.24150  0.49300  0.54010  Biso   1.000  C
  C16      1.0000 0.16920  0.41130  0.40770  Biso   1.000  C
  N28      1.0000 0.30250  0.54380  0.57800  Biso   1.000  N
  C17      1.0000 0.81070  0.42960  0.39170  Biso   1.000  C
  N29      1.0000 0.86790  0.43610  0.31860  Biso   1.000  N
  C18      1.0000 0.67030  0.45760  0.52400  Biso   1.000  C
  N30      1.0000 0.78200  0.42270  0.50180  Biso   1.000  N
  N31      1.0000 0.60320  0.49120  0.57520  Biso   1.000  N
  N32      1.0000 0.33850  0.29790  0.82300  Biso   1.000  N
  N33      1.0000 0.70800  0.40100  0.44490  Biso   1.000  N
  Cd4      1.0000 0.02841  0.44463  0.19300  Biso   1.000  Cd
  C19      1.0000 0.11130  0.62890  0.30650  Biso   1.000  C
  N34      1.0000 0.03290  0.81940  0.37080  Biso   1.000  N
  C20      1.0000 0.08250  0.75980  0.35800  Biso   1.000  C
  N35      1.0000 0.13830  0.69020  0.37300  Biso   1.000  N
  N36      1.0000 0.08780  0.56890  0.26770  Biso   1.000  N
  N37      1.0000 0.33880  0.61520  0.82290  Biso   1.000  N
  N38      1.0000 0.33300  0.56300  0.00730  Biso   1.000  N
  C21      1.0000 0.25850  0.50700  0.04010  Biso   1.000  C
  C22      1.0000 0.33080  0.58870  0.90770  Biso   1.000  C
  N39      1.0000 0.19750  0.45620  0.07800  Biso   1.000  N
  C23      1.0000 0.68930  0.57040  0.89170  Biso   1.000  C
  N40      1.0000 0.63210  0.56390  0.81860  Biso   1.000  N
  C24      1.0000 0.82970  0.54240  0.02400  Biso   1.000  C
  N41      1.0000 0.71800  0.57730  0.00180  Biso   1.000  N
  N42      1.0000 0.89680  0.50880  0.07520  Biso   1.000  N
  N43      1.0000 0.16150  0.70210  0.32300  Biso   1.000  N
  N44      1.0000 0.79200  0.59900  0.94490  Biso   1.000  N
