data_image0
_cell_length_a       10.058
_cell_length_b       16.6
_cell_length_c       14.739
_cell_angle_alpha    90
_cell_angle_beta     94.75
_cell_angle_gamma    90

_symmetry_space_group_name_H-M    "P 1"
_symmetry_int_tables_number       1

loop_
  _symmetry_equiv_pos_as_xyz
  'x, y, z'

loop_
  _atom_site_label
  _atom_site_occupancy
  _atom_site_fract_x
  _atom_site_fract_y
  _atom_site_fract_z
  _atom_site_thermal_displace_type
  _atom_site_B_iso_or_equiv
  _atom_site_type_symbol
  Zn1      1.0000 0.22781  0.87867  0.51417  Biso   1.000  Zn
  Zn2      1.0000 0.46304  0.82228  0.68425  Biso   1.000  Zn
  O1       1.0000 0.54550  0.44150  0.31590  Biso   1.000  O
  O2       1.0000 0.65950  0.47540  0.44700  Biso   1.000  O
  C1       1.0000 0.57670  0.48810  0.38070  Biso   1.000  C
  C2       1.0000 0.50790  0.56770  0.38100  Biso   1.000  C
  C3       1.0000 0.44000  0.68670  0.45800  Biso   1.000  C
  C4       1.0000 0.50710  0.61380  0.45820  Biso   1.000  C
  H1       1.0000 0.55370  0.59540  0.51300  Biso   1.000  H
  C5       1.0000 0.37150  0.66870  0.30270  Biso   1.000  C
  C6       1.0000 0.43460  0.59340  0.30240  Biso   1.000  C
  H2       1.0000 0.42730  0.56060  0.24930  Biso   1.000  H
  C7       1.0000 0.37200  0.71210  0.38030  Biso   1.000  C
  H3       1.0000 0.32380  0.76130  0.38020  Biso   1.000  H
  O3       1.0000 0.16560  0.84900  0.63910  Biso   1.000  O
  O4       1.0000 0.30540  0.79930  0.75090  Biso   1.000  O
  C8       1.0000 0.19210  0.82140  0.71430  Biso   1.000  C
  C9       1.0000 0.07750  0.80860  0.77400  Biso   1.000  C
  C10      1.0000 0.84220  0.80510  0.78620  Biso   1.000  C
  C11      1.0000 0.94710  0.81650  0.73520  Biso   1.000  C
  H4       1.0000 0.93130  0.83000  0.67260  Biso   1.000  H
  C12      1.0000 0.86210  0.78590  0.87640  Biso   1.000  C
  H5       1.0000 0.78910  0.77730  0.91220  Biso   1.000  H
  C13      1.0000 0.10020  0.79150  0.86490  Biso   1.000  C
  H6       1.0000 0.18880  0.78810  0.89250  Biso   1.000  H
  C14      1.0000 0.99560  0.77936  0.91470  Biso   1.000  C
  O5       1.0000 0.60550  0.80140  0.78940  Biso   1.000  O
  C15      1.0000 0.44290  0.73530  0.54420  Biso   1.000  C
  O6       1.0000 0.40390  0.80760  0.54020  Biso   1.000  O
  O7       1.0000 0.68720  0.82980  0.65880  Biso   1.000  O
  C16      1.0000 0.70240  0.81410  0.74060  Biso   1.000  C
  N1       1.0000 0.01990  0.75955  0.00570  Biso   1.000  N
  N2       1.0000 0.92930  0.71970  0.05060  Biso   1.000  N
  N3       1.0000 0.98430  0.71110  0.13490  Biso   1.000  N
  C17      1.0000 0.10730  0.74520  0.14130  Biso   1.000  C
  C18      1.0000 0.13210  0.77620  0.05970  Biso   1.000  C
  H7       1.0000 0.21000  0.80340  0.04380  Biso   1.000  H
  C19      1.0000 0.18800  0.74350  0.22780  Biso   1.000  C
  H8       1.0000 0.23460  0.79560  0.23810  Biso   1.000  H
  H9       1.0000 0.13030  0.73470  0.27810  Biso   1.000  H
  O8       1.0000 0.28320  0.67970  0.22590  Biso   1.000  O
  O9       1.0000 0.48120  0.70430  0.61920  Biso   1.000  O
  N4       1.0000 0.32480  0.71180  0.21410  Biso   1.000  N
  N5       1.0000 0.34840  0.68560  0.13150  Biso   1.000  N
  N6       1.0000 0.26700  0.72640  0.07340  Biso   1.000  N
  C20      1.0000 0.19200  0.77770  0.11970  Biso   1.000  C
  C21      1.0000 0.22930  0.76880  0.21120  Biso   1.000  C
  H10      1.0000 0.19550  0.79660  0.26080  Biso   1.000  H
  C22      1.0000 0.09240  0.83220  0.07390  Biso   1.000  C
  H11      1.0000 0.05490  0.86710  0.11990  Biso   1.000  H
  H12      1.0000 0.13660  0.86740  0.03120  Biso   1.000  H
  O10      1.0000 0.98760  0.78930  0.02550  Biso   1.000  O
  Zn3      1.0000 0.77219  0.37867  0.48583  Biso   1.000  Zn
  Zn4      1.0000 0.53696  0.32228  0.31575  Biso   1.000  Zn
  O11      1.0000 0.45450  0.94150  0.68410  Biso   1.000  O
  O12      1.0000 0.34050  0.97540  0.55300  Biso   1.000  O
  C23      1.0000 0.42330  0.98810  0.61930  Biso   1.000  C
  C24      1.0000 0.49210  0.06770  0.61900  Biso   1.000  C
  C25      1.0000 0.56000  0.18670  0.54200  Biso   1.000  C
  C26      1.0000 0.49290  0.11380  0.54180  Biso   1.000  C
  H13      1.0000 0.44630  0.09540  0.48700  Biso   1.000  H
  C27      1.0000 0.62850  0.16870  0.69730  Biso   1.000  C
  C28      1.0000 0.56540  0.09340  0.69760  Biso   1.000  C
  H14      1.0000 0.57270  0.06060  0.75070  Biso   1.000  H
  C29      1.0000 0.62800  0.21210  0.61970  Biso   1.000  C
  H15      1.0000 0.67620  0.26130  0.61980  Biso   1.000  H
  O13      1.0000 0.83440  0.34900  0.36090  Biso   1.000  O
  O14      1.0000 0.69460  0.29930  0.24910  Biso   1.000  O
  C30      1.0000 0.80790  0.32140  0.28570  Biso   1.000  C
  C31      1.0000 0.92250  0.30860  0.22600  Biso   1.000  C
  C32      1.0000 0.15780  0.30510  0.21380  Biso   1.000  C
  C33      1.0000 0.05290  0.31650  0.26480  Biso   1.000  C
  H16      1.0000 0.06870  0.33000  0.32740  Biso   1.000  H
  C34      1.0000 0.13790  0.28590  0.12360  Biso   1.000  C
  H17      1.0000 0.21090  0.27730  0.08780  Biso   1.000  H
  C35      1.0000 0.89980  0.29150  0.13510  Biso   1.000  C
  H18      1.0000 0.81120  0.28810  0.10750  Biso   1.000  H
  C36      1.0000 0.00440  0.27936  0.08530  Biso   1.000  C
  O15      1.0000 0.39450  0.30140  0.21060  Biso   1.000  O
  C37      1.0000 0.55710  0.23530  0.45580  Biso   1.000  C
  O16      1.0000 0.59610  0.30760  0.45980  Biso   1.000  O
  O17      1.0000 0.31280  0.32980  0.34120  Biso   1.000  O
  C38      1.0000 0.29760  0.31410  0.25940  Biso   1.000  C
  N7       1.0000 0.98010  0.25955  0.99430  Biso   1.000  N
  N8       1.0000 0.07070  0.21970  0.94940  Biso   1.000  N
  N9       1.0000 0.01570  0.21110  0.86510  Biso   1.000  N
  C39      1.0000 0.89270  0.24520  0.85870  Biso   1.000  C
  C40      1.0000 0.86790  0.27620  0.94030  Biso   1.000  C
  H19      1.0000 0.79000  0.30340  0.95620  Biso   1.000  H
  C41      1.0000 0.81200  0.24350  0.77220  Biso   1.000  C
  H20      1.0000 0.76540  0.29560  0.76190  Biso   1.000  H
  H21      1.0000 0.86970  0.23470  0.72190  Biso   1.000  H
  O18      1.0000 0.71680  0.17970  0.77410  Biso   1.000  O
  O19      1.0000 0.51880  0.20430  0.38080  Biso   1.000  O
  N10      1.0000 0.67520  0.21180  0.78590  Biso   1.000  N
  N11      1.0000 0.65160  0.18560  0.86850  Biso   1.000  N
  N12      1.0000 0.73300  0.22640  0.92660  Biso   1.000  N
  C42      1.0000 0.80800  0.27770  0.88030  Biso   1.000  C
  C43      1.0000 0.77070  0.26880  0.78880  Biso   1.000  C
  H22      1.0000 0.80450  0.29660  0.73920  Biso   1.000  H
  C44      1.0000 0.90760  0.33220  0.92610  Biso   1.000  C
  H23      1.0000 0.94510  0.36710  0.88010  Biso   1.000  H
  H24      1.0000 0.86340  0.36740  0.96880  Biso   1.000  H
  O20      1.0000 0.01240  0.28930  0.97450  Biso   1.000  O
