data_image0
_cell_length_a       14.685
_cell_length_b       14.685
_cell_length_c       8.9274
_cell_angle_alpha    90
_cell_angle_beta     90
_cell_angle_gamma    90

_symmetry_space_group_name_H-M    "P 1"
_symmetry_int_tables_number       1

loop_
  _symmetry_equiv_pos_as_xyz
  'x, y, z'

loop_
  _atom_site_label
  _atom_site_occupancy
  _atom_site_fract_x
  _atom_site_fract_y
  _atom_site_fract_z
  _atom_site_thermal_displace_type
  _atom_site_B_iso_or_equiv
  _atom_site_type_symbol
  Zn1      1.0000 0.13179  0.01115  0.73908  Biso   1.000  Zn
  Zn2      1.0000 0.00156  0.36891  0.55399  Biso   1.000  Zn
  P1       1.0000 0.35370  0.00000  0.69520  Biso   1.000  P
  P2       1.0000 0.98660  0.14700  0.59690  Biso   1.000  P
  O1       1.0000 0.07770  0.09640  0.60310  Biso   1.000  O
  O2       1.0000 0.94620  0.13920  0.44280  Biso   1.000  O
  O3       1.0000 0.92290  0.10580  0.71330  Biso   1.000  O
  O4       1.0000 0.11210  0.07670  0.21590  Biso   1.000  O
  O5       1.0000 0.00360  0.24570  0.63610  Biso   1.000  O
  O6       1.0000 0.25000  0.00830  0.64520  Biso   1.000  O
  O7       1.0000 0.35900  0.94830  0.84600  Biso   1.000  O
  O8       1.0000 0.36890  0.05100  0.85620  Biso   1.000  O
  O9       1.0000 0.39950  0.08340  0.68600  Biso   1.000  O
  O10      1.0000 0.39730  0.07430  0.57900  Biso   1.000  O
  O11      1.0000 0.38730  0.91190  0.67200  Biso   1.000  O
  O12      1.0000 0.38700  0.92020  0.58000  Biso   1.000  O
  Zn3      1.0000 0.86821  0.98885  0.73908  Biso   1.000  Zn
  Zn4      1.0000 0.99844  0.63109  0.55399  Biso   1.000  Zn
  P3       1.0000 0.64630  0.00000  0.69520  Biso   1.000  P
  P4       1.0000 0.01340  0.85300  0.59690  Biso   1.000  P
  O13      1.0000 0.92230  0.90360  0.60310  Biso   1.000  O
  O14      1.0000 0.05380  0.86080  0.44280  Biso   1.000  O
  O15      1.0000 0.07710  0.89420  0.71330  Biso   1.000  O
  O16      1.0000 0.88790  0.92330  0.21590  Biso   1.000  O
  O17      1.0000 0.99640  0.75430  0.63610  Biso   1.000  O
  O18      1.0000 0.75000  0.99170  0.64520  Biso   1.000  O
  O19      1.0000 0.64100  0.05170  0.84600  Biso   1.000  O
  O20      1.0000 0.63110  0.94900  0.85620  Biso   1.000  O
  O21      1.0000 0.60050  0.91660  0.68600  Biso   1.000  O
  O22      1.0000 0.60270  0.92570  0.57900  Biso   1.000  O
  O23      1.0000 0.61270  0.08810  0.67200  Biso   1.000  O
  O24      1.0000 0.61300  0.07980  0.58000  Biso   1.000  O
  Zn5      1.0000 0.98885  0.13179  0.23908  Biso   1.000  Zn
  Zn6      1.0000 0.63109  0.00156  0.05399  Biso   1.000  Zn
  P5       1.0000 0.00000  0.35370  0.19520  Biso   1.000  P
  P6       1.0000 0.85300  0.98660  0.09690  Biso   1.000  P
  O25      1.0000 0.90360  0.07770  0.10310  Biso   1.000  O
  O26      1.0000 0.86080  0.94620  0.94280  Biso   1.000  O
  O27      1.0000 0.89420  0.92290  0.21330  Biso   1.000  O
  O28      1.0000 0.92330  0.11210  0.71590  Biso   1.000  O
  O29      1.0000 0.75430  0.00360  0.13610  Biso   1.000  O
  O30      1.0000 0.99170  0.25000  0.14520  Biso   1.000  O
  O31      1.0000 0.05170  0.35900  0.34600  Biso   1.000  O
  O32      1.0000 0.94900  0.36890  0.35620  Biso   1.000  O
  O33      1.0000 0.91660  0.39950  0.18600  Biso   1.000  O
  O34      1.0000 0.92570  0.39730  0.07900  Biso   1.000  O
  O35      1.0000 0.08810  0.38730  0.17200  Biso   1.000  O
  O36      1.0000 0.07980  0.38700  0.08000  Biso   1.000  O
  Zn7      1.0000 0.01115  0.86821  0.23908  Biso   1.000  Zn
  Zn8      1.0000 0.36891  0.99844  0.05399  Biso   1.000  Zn
  P7       1.0000 0.00000  0.64630  0.19520  Biso   1.000  P
  P8       1.0000 0.14700  0.01340  0.09690  Biso   1.000  P
  O37      1.0000 0.09640  0.92230  0.10310  Biso   1.000  O
  O38      1.0000 0.13920  0.05380  0.94280  Biso   1.000  O
  O39      1.0000 0.10580  0.07710  0.21330  Biso   1.000  O
  O40      1.0000 0.07670  0.88790  0.71590  Biso   1.000  O
  O41      1.0000 0.24570  0.99640  0.13610  Biso   1.000  O
  O42      1.0000 0.00830  0.75000  0.14520  Biso   1.000  O
  O43      1.0000 0.94830  0.64100  0.34600  Biso   1.000  O
  O44      1.0000 0.05100  0.63110  0.35620  Biso   1.000  O
  O45      1.0000 0.08340  0.60050  0.18600  Biso   1.000  O
  O46      1.0000 0.07430  0.60270  0.07900  Biso   1.000  O
  O47      1.0000 0.91190  0.61270  0.17200  Biso   1.000  O
  O48      1.0000 0.92020  0.61300  0.08000  Biso   1.000  O
  Zn9      1.0000 0.63179  0.48885  0.73908  Biso   1.000  Zn
  Zn10     1.0000 0.50156  0.13109  0.55399  Biso   1.000  Zn
  P9       1.0000 0.85370  0.50000  0.69520  Biso   1.000  P
  P10      1.0000 0.48660  0.35300  0.59690  Biso   1.000  P
  O49      1.0000 0.57770  0.40360  0.60310  Biso   1.000  O
  O50      1.0000 0.44620  0.36080  0.44280  Biso   1.000  O
  O51      1.0000 0.42290  0.39420  0.71330  Biso   1.000  O
  O52      1.0000 0.61210  0.42330  0.21590  Biso   1.000  O
  O53      1.0000 0.50360  0.25430  0.63610  Biso   1.000  O
  O54      1.0000 0.75000  0.49170  0.64520  Biso   1.000  O
  O55      1.0000 0.85900  0.55170  0.84600  Biso   1.000  O
  O56      1.0000 0.86890  0.44900  0.85620  Biso   1.000  O
  O57      1.0000 0.89950  0.41660  0.68600  Biso   1.000  O
  O58      1.0000 0.89730  0.42570  0.57900  Biso   1.000  O
  O59      1.0000 0.88730  0.58810  0.67200  Biso   1.000  O
  O60      1.0000 0.88700  0.57980  0.58000  Biso   1.000  O
  Zn11     1.0000 0.36821  0.51115  0.73908  Biso   1.000  Zn
  Zn12     1.0000 0.49844  0.86891  0.55399  Biso   1.000  Zn
  P11      1.0000 0.14630  0.50000  0.69520  Biso   1.000  P
  P12      1.0000 0.51340  0.64700  0.59690  Biso   1.000  P
  O61      1.0000 0.42230  0.59640  0.60310  Biso   1.000  O
  O62      1.0000 0.55380  0.63920  0.44280  Biso   1.000  O
  O63      1.0000 0.57710  0.60580  0.71330  Biso   1.000  O
  O64      1.0000 0.38790  0.57670  0.21590  Biso   1.000  O
  O65      1.0000 0.49640  0.74570  0.63610  Biso   1.000  O
  O66      1.0000 0.25000  0.50830  0.64520  Biso   1.000  O
  O67      1.0000 0.14100  0.44830  0.84600  Biso   1.000  O
  O68      1.0000 0.13110  0.55100  0.85620  Biso   1.000  O
  O69      1.0000 0.10050  0.58340  0.68600  Biso   1.000  O
  O70      1.0000 0.10270  0.57430  0.57900  Biso   1.000  O
  O71      1.0000 0.11270  0.41190  0.67200  Biso   1.000  O
  O72      1.0000 0.11300  0.42020  0.58000  Biso   1.000  O
  Zn13     1.0000 0.48885  0.36821  0.23908  Biso   1.000  Zn
  Zn14     1.0000 0.13109  0.49844  0.05399  Biso   1.000  Zn
  P13      1.0000 0.50000  0.14630  0.19520  Biso   1.000  P
  P14      1.0000 0.35300  0.51340  0.09690  Biso   1.000  P
  O73      1.0000 0.40360  0.42230  0.10310  Biso   1.000  O
  O74      1.0000 0.36080  0.55380  0.94280  Biso   1.000  O
  O75      1.0000 0.39420  0.57710  0.21330  Biso   1.000  O
  O76      1.0000 0.42330  0.38790  0.71590  Biso   1.000  O
  O77      1.0000 0.25430  0.49640  0.13610  Biso   1.000  O
  O78      1.0000 0.49170  0.25000  0.14520  Biso   1.000  O
  O79      1.0000 0.55170  0.14100  0.34600  Biso   1.000  O
  O80      1.0000 0.44900  0.13110  0.35620  Biso   1.000  O
  O81      1.0000 0.41660  0.10050  0.18600  Biso   1.000  O
  O82      1.0000 0.42570  0.10270  0.07900  Biso   1.000  O
  O83      1.0000 0.58810  0.11270  0.17200  Biso   1.000  O
  O84      1.0000 0.57980  0.11300  0.08000  Biso   1.000  O
  Zn15     1.0000 0.51115  0.63179  0.23908  Biso   1.000  Zn
  Zn16     1.0000 0.86891  0.50156  0.05399  Biso   1.000  Zn
  P15      1.0000 0.50000  0.85370  0.19520  Biso   1.000  P
  P16      1.0000 0.64700  0.48660  0.09690  Biso   1.000  P
  O85      1.0000 0.59640  0.57770  0.10310  Biso   1.000  O
  O86      1.0000 0.63920  0.44620  0.94280  Biso   1.000  O
  O87      1.0000 0.60580  0.42290  0.21330  Biso   1.000  O
  O88      1.0000 0.57670  0.61210  0.71590  Biso   1.000  O
  O89      1.0000 0.74570  0.50360  0.13610  Biso   1.000  O
  O90      1.0000 0.50830  0.75000  0.14520  Biso   1.000  O
  O91      1.0000 0.44830  0.85900  0.34600  Biso   1.000  O
  O92      1.0000 0.55100  0.86890  0.35620  Biso   1.000  O
  O93      1.0000 0.58340  0.89950  0.18600  Biso   1.000  O
  O94      1.0000 0.57430  0.89730  0.07900  Biso   1.000  O
  O95      1.0000 0.41190  0.88730  0.17200  Biso   1.000  O
  O96      1.0000 0.42020  0.88700  0.08000  Biso   1.000  O
