data_image0
_cell_length_a       11.771
_cell_length_b       11.771
_cell_length_c       11.771
_cell_angle_alpha    90
_cell_angle_beta     90
_cell_angle_gamma    90

_symmetry_space_group_name_H-M    "P 1"
_symmetry_int_tables_number       1

loop_
  _symmetry_equiv_pos_as_xyz
  'x, y, z'

loop_
  _atom_site_label
  _atom_site_occupancy
  _atom_site_fract_x
  _atom_site_fract_y
  _atom_site_fract_z
  _atom_site_thermal_displace_type
  _atom_site_B_iso_or_equiv
  _atom_site_type_symbol
  Cu1      1.0000 0.00000  0.00000  0.00000  Biso   1.000  Cu
  Cu2      1.0000 0.00000  0.50000  0.50000  Biso   1.000  Cu
  Cu3      1.0000 0.50000  0.00000  0.50000  Biso   1.000  Cu
  Cu4      1.0000 0.50000  0.50000  0.00000  Biso   1.000  Cu
  Zn1      1.0000 0.25000  0.25000  0.25000  Biso   1.000  Zn
  Zn2      1.0000 0.75000  0.75000  0.25000  Biso   1.000  Zn
  Zn3      1.0000 0.75000  0.25000  0.75000  Biso   1.000  Zn
  Zn4      1.0000 0.25000  0.75000  0.75000  Biso   1.000  Zn
  C1       1.0000 0.09400  0.09400  0.09400  Biso   1.000  C
  N1       1.0000 0.15000  0.15000  0.15000  Biso   1.000  N
  C2       1.0000 0.09400  0.59400  0.59400  Biso   1.000  C
  N2       1.0000 0.15000  0.65000  0.65000  Biso   1.000  N
  C3       1.0000 0.59400  0.09400  0.59400  Biso   1.000  C
  N3       1.0000 0.65000  0.15000  0.65000  Biso   1.000  N
  C4       1.0000 0.59400  0.59400  0.09400  Biso   1.000  C
  N4       1.0000 0.65000  0.65000  0.15000  Biso   1.000  N
  C5       1.0000 0.90600  0.90600  0.09400  Biso   1.000  C
  N5       1.0000 0.85000  0.85000  0.15000  Biso   1.000  N
  C6       1.0000 0.90600  0.40600  0.59400  Biso   1.000  C
  N6       1.0000 0.85000  0.35000  0.65000  Biso   1.000  N
  C7       1.0000 0.40600  0.90600  0.59400  Biso   1.000  C
  N7       1.0000 0.35000  0.85000  0.65000  Biso   1.000  N
  C8       1.0000 0.40600  0.40600  0.09400  Biso   1.000  C
  N8       1.0000 0.35000  0.35000  0.15000  Biso   1.000  N
  C9       1.0000 0.90600  0.09400  0.90600  Biso   1.000  C
  N9       1.0000 0.85000  0.15000  0.85000  Biso   1.000  N
  C10      1.0000 0.90600  0.59400  0.40600  Biso   1.000  C
  N10      1.0000 0.85000  0.65000  0.35000  Biso   1.000  N
  C11      1.0000 0.40600  0.09400  0.40600  Biso   1.000  C
  N11      1.0000 0.35000  0.15000  0.35000  Biso   1.000  N
  C12      1.0000 0.40600  0.59400  0.90600  Biso   1.000  C
  N12      1.0000 0.35000  0.65000  0.85000  Biso   1.000  N
  C13      1.0000 0.09400  0.90600  0.90600  Biso   1.000  C
  N13      1.0000 0.15000  0.85000  0.85000  Biso   1.000  N
  C14      1.0000 0.09400  0.40600  0.40600  Biso   1.000  C
  N14      1.0000 0.15000  0.35000  0.35000  Biso   1.000  N
  C15      1.0000 0.59400  0.90600  0.40600  Biso   1.000  C
  N15      1.0000 0.65000  0.85000  0.35000  Biso   1.000  N
  C16      1.0000 0.59400  0.40600  0.90600  Biso   1.000  C
  N16      1.0000 0.65000  0.35000  0.85000  Biso   1.000  N
  C17      1.0000 0.92900  0.92900  0.04290  Biso   1.000  C
  C18      1.0000 0.92900  0.42900  0.54290  Biso   1.000  C
  C19      1.0000 0.42900  0.92900  0.54290  Biso   1.000  C
  C20      1.0000 0.42900  0.42900  0.04290  Biso   1.000  C
  C21      1.0000 0.07100  0.07100  0.04290  Biso   1.000  C
  C22      1.0000 0.07100  0.57100  0.54290  Biso   1.000  C
  C23      1.0000 0.57100  0.07100  0.54290  Biso   1.000  C
  C24      1.0000 0.57100  0.57100  0.04290  Biso   1.000  C
  C25      1.0000 0.07100  0.92900  0.95710  Biso   1.000  C
  C26      1.0000 0.07100  0.42900  0.45710  Biso   1.000  C
  C27      1.0000 0.57100  0.92900  0.45710  Biso   1.000  C
  C28      1.0000 0.57100  0.42900  0.95710  Biso   1.000  C
  C29      1.0000 0.92900  0.07100  0.95710  Biso   1.000  C
  C30      1.0000 0.92900  0.57100  0.45710  Biso   1.000  C
  C31      1.0000 0.42900  0.07100  0.45710  Biso   1.000  C
  C32      1.0000 0.42900  0.57100  0.95710  Biso   1.000  C
  C33      1.0000 0.04290  0.92900  0.92900  Biso   1.000  C
  C34      1.0000 0.04290  0.42900  0.42900  Biso   1.000  C
  C35      1.0000 0.54290  0.92900  0.42900  Biso   1.000  C
  C36      1.0000 0.54290  0.42900  0.92900  Biso   1.000  C
  C37      1.0000 0.04290  0.07100  0.07100  Biso   1.000  C
  C38      1.0000 0.04290  0.57100  0.57100  Biso   1.000  C
  C39      1.0000 0.54290  0.07100  0.57100  Biso   1.000  C
  C40      1.0000 0.54290  0.57100  0.07100  Biso   1.000  C
  C41      1.0000 0.95710  0.07100  0.92900  Biso   1.000  C
  C42      1.0000 0.95710  0.57100  0.42900  Biso   1.000  C
  C43      1.0000 0.45710  0.07100  0.42900  Biso   1.000  C
  C44      1.0000 0.45710  0.57100  0.92900  Biso   1.000  C
  C45      1.0000 0.95710  0.92900  0.07100  Biso   1.000  C
  C46      1.0000 0.95710  0.42900  0.57100  Biso   1.000  C
  C47      1.0000 0.45710  0.92900  0.57100  Biso   1.000  C
  C48      1.0000 0.45710  0.42900  0.07100  Biso   1.000  C
  C49      1.0000 0.92900  0.04290  0.92900  Biso   1.000  C
  C50      1.0000 0.92900  0.54290  0.42900  Biso   1.000  C
  C51      1.0000 0.42900  0.04290  0.42900  Biso   1.000  C
  C52      1.0000 0.42900  0.54290  0.92900  Biso   1.000  C
  C53      1.0000 0.07100  0.04290  0.07100  Biso   1.000  C
  C54      1.0000 0.07100  0.54290  0.57100  Biso   1.000  C
  C55      1.0000 0.57100  0.04290  0.57100  Biso   1.000  C
  C56      1.0000 0.57100  0.54290  0.07100  Biso   1.000  C
  C57      1.0000 0.92900  0.95710  0.07100  Biso   1.000  C
  C58      1.0000 0.92900  0.45710  0.57100  Biso   1.000  C
  C59      1.0000 0.42900  0.95710  0.57100  Biso   1.000  C
  C60      1.0000 0.42900  0.45710  0.07100  Biso   1.000  C
  C61      1.0000 0.07100  0.95710  0.92900  Biso   1.000  C
  C62      1.0000 0.07100  0.45710  0.42900  Biso   1.000  C
  C63      1.0000 0.57100  0.95710  0.42900  Biso   1.000  C
  C64      1.0000 0.57100  0.45710  0.92900  Biso   1.000  C
