data_image0
_cell_length_a       14.2343
_cell_length_b       17.2526
_cell_length_c       7.2908
_cell_angle_alpha    90
_cell_angle_beta     90
_cell_angle_gamma    90

_symmetry_space_group_name_H-M    "P 1"
_symmetry_int_tables_number       1

loop_
  _symmetry_equiv_pos_as_xyz
  'x, y, z'

loop_
  _atom_site_label
  _atom_site_occupancy
  _atom_site_fract_x
  _atom_site_fract_y
  _atom_site_fract_z
  _atom_site_thermal_displace_type
  _atom_site_B_iso_or_equiv
  _atom_site_type_symbol
  N1       1.0000 0.14850  0.23050  0.29170  Biso   1.000  N
  C1       1.0000 0.09980  0.22170  0.16900  Biso   1.000  C
  N2       1.0000 0.64850  0.73050  0.29170  Biso   1.000  N
  C2       1.0000 0.59980  0.72170  0.16900  Biso   1.000  C
  N3       1.0000 0.85150  0.76950  0.29170  Biso   1.000  N
  C3       1.0000 0.90020  0.77830  0.16900  Biso   1.000  C
  N4       1.0000 0.35150  0.26950  0.29170  Biso   1.000  N
  C4       1.0000 0.40020  0.27830  0.16900  Biso   1.000  C
  N5       1.0000 0.85150  0.23050  0.70830  Biso   1.000  N
  C5       1.0000 0.90020  0.22170  0.83100  Biso   1.000  C
  N6       1.0000 0.35150  0.73050  0.70830  Biso   1.000  N
  C6       1.0000 0.40020  0.72170  0.83100  Biso   1.000  C
  N7       1.0000 0.14850  0.76950  0.70830  Biso   1.000  N
  C7       1.0000 0.09980  0.77830  0.83100  Biso   1.000  C
  N8       1.0000 0.64850  0.26950  0.70830  Biso   1.000  N
  C8       1.0000 0.59980  0.27830  0.83100  Biso   1.000  C
  N9       1.0000 0.85150  0.76950  0.70830  Biso   1.000  N
  C9       1.0000 0.90020  0.77830  0.83100  Biso   1.000  C
  N10      1.0000 0.35150  0.26950  0.70830  Biso   1.000  N
  C10      1.0000 0.40020  0.27830  0.83100  Biso   1.000  C
  N11      1.0000 0.14850  0.23050  0.70830  Biso   1.000  N
  C11      1.0000 0.09980  0.22170  0.83100  Biso   1.000  C
  N12      1.0000 0.64850  0.73050  0.70830  Biso   1.000  N
  C12      1.0000 0.59980  0.72170  0.83100  Biso   1.000  C
  N13      1.0000 0.14850  0.76950  0.29170  Biso   1.000  N
  C13      1.0000 0.09980  0.77830  0.16900  Biso   1.000  C
  N14      1.0000 0.64850  0.26950  0.29170  Biso   1.000  N
  C14      1.0000 0.59980  0.27830  0.16900  Biso   1.000  C
  N15      1.0000 0.85150  0.23050  0.29170  Biso   1.000  N
  C15      1.0000 0.90020  0.22170  0.16900  Biso   1.000  C
  N16      1.0000 0.35150  0.73050  0.29170  Biso   1.000  N
  C16      1.0000 0.40020  0.72170  0.16900  Biso   1.000  C
  Co1      1.0000 0.25000  0.25000  0.50000  Biso   1.000  Co
  Co2      1.0000 0.75000  0.75000  0.50000  Biso   1.000  Co
  Co3      1.0000 0.75000  0.25000  0.50000  Biso   1.000  Co
  Co4      1.0000 0.25000  0.75000  0.50000  Biso   1.000  Co
  N17      1.0000 0.28520  0.13340  0.50000  Biso   1.000  N
  C17      1.0000 0.31550  0.06620  0.50000  Biso   1.000  C
  N18      1.0000 0.78520  0.63340  0.50000  Biso   1.000  N
  C18      1.0000 0.81550  0.56620  0.50000  Biso   1.000  C
  N19      1.0000 0.71480  0.86660  0.50000  Biso   1.000  N
  C19      1.0000 0.68450  0.93380  0.50000  Biso   1.000  C
  N20      1.0000 0.21480  0.36660  0.50000  Biso   1.000  N
  C20      1.0000 0.18450  0.43380  0.50000  Biso   1.000  C
  N21      1.0000 0.71480  0.13340  0.50000  Biso   1.000  N
  C21      1.0000 0.68450  0.06620  0.50000  Biso   1.000  C
  N22      1.0000 0.21480  0.63340  0.50000  Biso   1.000  N
  C22      1.0000 0.18450  0.56620  0.50000  Biso   1.000  C
  N23      1.0000 0.28520  0.86660  0.50000  Biso   1.000  N
  C23      1.0000 0.31550  0.93380  0.50000  Biso   1.000  C
  N24      1.0000 0.78520  0.36660  0.50000  Biso   1.000  N
  C24      1.0000 0.81550  0.43380  0.50000  Biso   1.000  C
  C25      1.0000 0.04580  0.22050  0.00000  Biso   1.000  C
  C26      1.0000 0.54580  0.72050  0.00000  Biso   1.000  C
  C27      1.0000 0.95420  0.77950  0.00000  Biso   1.000  C
  C28      1.0000 0.45420  0.27950  0.00000  Biso   1.000  C
  C29      1.0000 0.95420  0.22050  0.00000  Biso   1.000  C
  C30      1.0000 0.45420  0.72050  0.00000  Biso   1.000  C
  C31      1.0000 0.04580  0.77950  0.00000  Biso   1.000  C
  C32      1.0000 0.54580  0.27950  0.00000  Biso   1.000  C
  C33      1.0000 0.37080  0.00000  0.50000  Biso   1.000  C
  C34      1.0000 0.87080  0.50000  0.50000  Biso   1.000  C
  C35      1.0000 0.62920  0.00000  0.50000  Biso   1.000  C
  C36      1.0000 0.12920  0.50000  0.50000  Biso   1.000  C
  C37      1.0000 0.46430  0.00000  0.41100  Biso   1.000  C
  C38      1.0000 0.96430  0.50000  0.41100  Biso   1.000  C
  C39      1.0000 0.53570  0.00000  0.41100  Biso   1.000  C
  C40      1.0000 0.03570  0.50000  0.41100  Biso   1.000  C
  C41      1.0000 0.53570  0.00000  0.58900  Biso   1.000  C
  C42      1.0000 0.03570  0.50000  0.58900  Biso   1.000  C
  C43      1.0000 0.46430  0.00000  0.58900  Biso   1.000  C
  C44      1.0000 0.96430  0.50000  0.58900  Biso   1.000  C
  N25      1.0000 0.50000  0.87470  0.22020  Biso   1.000  N
  C45      1.0000 0.50000  0.93210  0.29600  Biso   1.000  C
  N26      1.0000 0.00000  0.37470  0.22020  Biso   1.000  N
  C46      1.0000 0.00000  0.43210  0.29600  Biso   1.000  C
  N27      1.0000 0.50000  0.12530  0.22020  Biso   1.000  N
  C47      1.0000 0.50000  0.06790  0.29600  Biso   1.000  C
  N28      1.0000 0.00000  0.62530  0.22020  Biso   1.000  N
  C48      1.0000 0.00000  0.56790  0.29600  Biso   1.000  C
  N29      1.0000 0.50000  0.87470  0.77980  Biso   1.000  N
  C49      1.0000 0.50000  0.93210  0.70400  Biso   1.000  C
  N30      1.0000 0.00000  0.37470  0.77980  Biso   1.000  N
  C50      1.0000 0.00000  0.43210  0.70400  Biso   1.000  C
  N31      1.0000 0.50000  0.12530  0.77980  Biso   1.000  N
  C51      1.0000 0.50000  0.06790  0.70400  Biso   1.000  C
  N32      1.0000 0.00000  0.62530  0.77980  Biso   1.000  N
  C52      1.0000 0.00000  0.56790  0.70400  Biso   1.000  C
