data_image0
_cell_length_a       13.6363
_cell_length_b       16.8584
_cell_length_c       8.226
_cell_angle_alpha    90
_cell_angle_beta     99.159
_cell_angle_gamma    90

_symmetry_space_group_name_H-M    "P 1"
_symmetry_int_tables_number       1

loop_
  _symmetry_equiv_pos_as_xyz
  'x, y, z'

loop_
  _atom_site_label
  _atom_site_occupancy
  _atom_site_fract_x
  _atom_site_fract_y
  _atom_site_fract_z
  _atom_site_thermal_displace_type
  _atom_site_B_iso_or_equiv
  _atom_site_type_symbol
  Zn1      1.0000 0.36334  0.02255  0.37069  Biso   1.000  Zn
  O1       1.0000 0.41806  0.97879  0.59700  Biso   1.000  O
  O2       1.0000 0.54350  0.89583  0.67730  Biso   1.000  O
  O3       1.0000 0.46150  0.59860  0.64320  Biso   1.000  O
  O4       1.0000 0.32057  0.57198  0.74070  Biso   1.000  O
  O5       1.0000 0.76629  0.86646  0.81110  Biso   1.000  O
  O6       1.0000 0.75757  0.93192  0.57040  Biso   1.000  O
  C1       1.0000 0.80250  0.88690  0.68800  Biso   1.000  C
  C2       1.0000 0.45100  0.91150  0.64080  Biso   1.000  C
  C3       1.0000 0.38150  0.61640  0.68360  Biso   1.000  C
  C4       1.0000 0.90600  0.86120  0.67280  Biso   1.000  C
  C5       1.0000 0.95770  0.89840  0.56070  Biso   1.000  C
  H1       1.0000 0.92550  0.93510  0.48620  Biso   1.000  H
  C6       1.0000 0.05650  0.88097  0.56010  Biso   1.000  C
  H2       1.0000 0.09120  0.90790  0.48860  Biso   1.000  H
  C7       1.0000 0.10540  0.82269  0.66690  Biso   1.000  C
  C8       1.0000 0.05180  0.78330  0.77260  Biso   1.000  C
  H3       1.0000 0.08190  0.74340  0.84090  Biso   1.000  H
  C9       1.0000 0.95380  0.80330  0.77680  Biso   1.000  C
  H4       1.0000 0.91940  0.77750  0.85040  Biso   1.000  H
  C10      1.0000 0.21190  0.80354  0.66740  Biso   1.000  C
  C11      1.0000 0.27950  0.86300  0.64860  Biso   1.000  C
  H5       1.0000 0.25740  0.91490  0.63020  Biso   1.000  H
  C12      1.0000 0.37980  0.84590  0.65690  Biso   1.000  C
  C13      1.0000 0.41260  0.76840  0.67960  Biso   1.000  C
  H6       1.0000 0.47980  0.75690  0.68530  Biso   1.000  H
  C14      1.0000 0.34590  0.70760  0.69390  Biso   1.000  C
  C15      1.0000 0.24620  0.72570  0.68940  Biso   1.000  C
  H7       1.0000 0.20150  0.68520  0.70130  Biso   1.000  H
  O7       1.0000 0.47440  0.62350  0.80330  Biso   1.000  O
  C16      1.0000 0.38380  0.63110  0.75660  Biso   1.000  C
  Zn2      1.0000 0.63666  0.52255  0.12931  Biso   1.000  Zn
  O8       1.0000 0.58194  0.47879  0.90300  Biso   1.000  O
  O9       1.0000 0.45650  0.39583  0.82270  Biso   1.000  O
  O10      1.0000 0.53850  0.09860  0.85680  Biso   1.000  O
  O11      1.0000 0.67943  0.07198  0.75930  Biso   1.000  O
  O12      1.0000 0.23371  0.36646  0.68890  Biso   1.000  O
  O13      1.0000 0.24243  0.43192  0.92960  Biso   1.000  O
  C17      1.0000 0.19750  0.38690  0.81200  Biso   1.000  C
  C18      1.0000 0.54900  0.41150  0.85920  Biso   1.000  C
  C19      1.0000 0.61850  0.11640  0.81640  Biso   1.000  C
  C20      1.0000 0.09400  0.36120  0.82720  Biso   1.000  C
  C21      1.0000 0.04230  0.39840  0.93930  Biso   1.000  C
  H8       1.0000 0.07450  0.43510  0.01380  Biso   1.000  H
  C22      1.0000 0.94350  0.38097  0.93990  Biso   1.000  C
  H9       1.0000 0.90880  0.40790  0.01140  Biso   1.000  H
  C23      1.0000 0.89460  0.32269  0.83310  Biso   1.000  C
  C24      1.0000 0.94820  0.28330  0.72740  Biso   1.000  C
  H10      1.0000 0.91810  0.24340  0.65910  Biso   1.000  H
  C25      1.0000 0.04620  0.30330  0.72320  Biso   1.000  C
  H11      1.0000 0.08060  0.27750  0.64960  Biso   1.000  H
  C26      1.0000 0.78810  0.30354  0.83260  Biso   1.000  C
  C27      1.0000 0.72050  0.36300  0.85140  Biso   1.000  C
  H12      1.0000 0.74260  0.41490  0.86980  Biso   1.000  H
  C28      1.0000 0.62020  0.34590  0.84310  Biso   1.000  C
  C29      1.0000 0.58740  0.26840  0.82040  Biso   1.000  C
  H13      1.0000 0.52020  0.25690  0.81470  Biso   1.000  H
  C30      1.0000 0.65410  0.20760  0.80610  Biso   1.000  C
  C31      1.0000 0.75380  0.22570  0.81060  Biso   1.000  C
  H14      1.0000 0.79850  0.18520  0.79870  Biso   1.000  H
  O14      1.0000 0.52560  0.12350  0.69670  Biso   1.000  O
  C32      1.0000 0.61620  0.13110  0.74340  Biso   1.000  C
  Zn3      1.0000 0.63666  0.97745  0.62931  Biso   1.000  Zn
  O15      1.0000 0.58194  0.02121  0.40300  Biso   1.000  O
  O16      1.0000 0.45650  0.10417  0.32270  Biso   1.000  O
  O17      1.0000 0.53850  0.40140  0.35680  Biso   1.000  O
  O18      1.0000 0.67943  0.42802  0.25930  Biso   1.000  O
  O19      1.0000 0.23371  0.13354  0.18890  Biso   1.000  O
  O20      1.0000 0.24243  0.06808  0.42960  Biso   1.000  O
  C33      1.0000 0.19750  0.11310  0.31200  Biso   1.000  C
  C34      1.0000 0.54900  0.08850  0.35920  Biso   1.000  C
  C35      1.0000 0.61850  0.38360  0.31640  Biso   1.000  C
  C36      1.0000 0.09400  0.13880  0.32720  Biso   1.000  C
  C37      1.0000 0.04230  0.10160  0.43930  Biso   1.000  C
  H15      1.0000 0.07450  0.06490  0.51380  Biso   1.000  H
  C38      1.0000 0.94350  0.11903  0.43990  Biso   1.000  C
  H16      1.0000 0.90880  0.09210  0.51140  Biso   1.000  H
  C39      1.0000 0.89460  0.17731  0.33310  Biso   1.000  C
  C40      1.0000 0.94820  0.21670  0.22740  Biso   1.000  C
  H17      1.0000 0.91810  0.25660  0.15910  Biso   1.000  H
  C41      1.0000 0.04620  0.19670  0.22320  Biso   1.000  C
  H18      1.0000 0.08060  0.22250  0.14960  Biso   1.000  H
  C42      1.0000 0.78810  0.19646  0.33260  Biso   1.000  C
  C43      1.0000 0.72050  0.13700  0.35140  Biso   1.000  C
  H19      1.0000 0.74260  0.08510  0.36980  Biso   1.000  H
  C44      1.0000 0.62020  0.15410  0.34310  Biso   1.000  C
  C45      1.0000 0.58740  0.23160  0.32040  Biso   1.000  C
  H20      1.0000 0.52020  0.24310  0.31470  Biso   1.000  H
  C46      1.0000 0.65410  0.29240  0.30610  Biso   1.000  C
  C47      1.0000 0.75380  0.27430  0.31060  Biso   1.000  C
  H21      1.0000 0.79850  0.31480  0.29870  Biso   1.000  H
  O21      1.0000 0.52560  0.37650  0.19670  Biso   1.000  O
  C48      1.0000 0.61620  0.36890  0.24340  Biso   1.000  C
  Zn4      1.0000 0.36334  0.47745  0.87069  Biso   1.000  Zn
  O22      1.0000 0.41806  0.52121  0.09700  Biso   1.000  O
  O23      1.0000 0.54350  0.60417  0.17730  Biso   1.000  O
  O24      1.0000 0.46150  0.90140  0.14320  Biso   1.000  O
  O25      1.0000 0.32057  0.92802  0.24070  Biso   1.000  O
  O26      1.0000 0.76629  0.63354  0.31110  Biso   1.000  O
  O27      1.0000 0.75757  0.56808  0.07040  Biso   1.000  O
  C49      1.0000 0.80250  0.61310  0.18800  Biso   1.000  C
  C50      1.0000 0.45100  0.58850  0.14080  Biso   1.000  C
  C51      1.0000 0.38150  0.88360  0.18360  Biso   1.000  C
  C52      1.0000 0.90600  0.63880  0.17280  Biso   1.000  C
  C53      1.0000 0.95770  0.60160  0.06070  Biso   1.000  C
  H22      1.0000 0.92550  0.56490  0.98620  Biso   1.000  H
  C54      1.0000 0.05650  0.61903  0.06010  Biso   1.000  C
  H23      1.0000 0.09120  0.59210  0.98860  Biso   1.000  H
  C55      1.0000 0.10540  0.67731  0.16690  Biso   1.000  C
  C56      1.0000 0.05180  0.71670  0.27260  Biso   1.000  C
  H24      1.0000 0.08190  0.75660  0.34090  Biso   1.000  H
  C57      1.0000 0.95380  0.69670  0.27680  Biso   1.000  C
  H25      1.0000 0.91940  0.72250  0.35040  Biso   1.000  H
  C58      1.0000 0.21190  0.69646  0.16740  Biso   1.000  C
  C59      1.0000 0.27950  0.63700  0.14860  Biso   1.000  C
  H26      1.0000 0.25740  0.58510  0.13020  Biso   1.000  H
  C60      1.0000 0.37980  0.65410  0.15690  Biso   1.000  C
  C61      1.0000 0.41260  0.73160  0.17960  Biso   1.000  C
  H27      1.0000 0.47980  0.74310  0.18530  Biso   1.000  H
  C62      1.0000 0.34590  0.79240  0.19390  Biso   1.000  C
  C63      1.0000 0.24620  0.77430  0.18940  Biso   1.000  C
  H28      1.0000 0.20150  0.81480  0.20130  Biso   1.000  H
  O28      1.0000 0.47440  0.87650  0.30330  Biso   1.000  O
  C64      1.0000 0.38380  0.86890  0.25660  Biso   1.000  C
