data_image0
_cell_length_a       14.87
_cell_length_b       10.245
_cell_length_c       18.868
_cell_angle_alpha    90
_cell_angle_beta     99.5
_cell_angle_gamma    90

_symmetry_space_group_name_H-M    "P 1"
_symmetry_int_tables_number       1

loop_
  _symmetry_equiv_pos_as_xyz
  'x, y, z'

loop_
  _atom_site_label
  _atom_site_occupancy
  _atom_site_fract_x
  _atom_site_fract_y
  _atom_site_fract_z
  _atom_site_thermal_displace_type
  _atom_site_B_iso_or_equiv
  _atom_site_type_symbol
  V1       1.0000 0.15930  0.12110  0.58940  Biso   1.000  V
  V2       1.0000 0.76830  0.05990  0.71620  Biso   1.000  V
  P1       1.0000 0.28640  0.37960  0.57420  Biso   1.000  P
  P2       1.0000 0.66060  0.33750  0.67000  Biso   1.000  P
  O1       1.0000 0.19790  0.30430  0.57570  Biso   1.000  O
  O2       1.0000 0.29630  0.42310  0.49900  Biso   1.000  O
  O3       1.0000 0.67080  0.43160  0.60840  Biso   1.000  O
  O4       1.0000 0.73520  0.23590  0.67370  Biso   1.000  O
  O5       1.0000 0.65970  0.40780  0.74070  Biso   1.000  O
  O6       1.0000 0.28970  0.50350  0.61950  Biso   1.000  O
  O7       1.0000 0.20670  0.15210  0.68950  Biso   1.000  O
  C1       1.0000 0.38240  0.27450  0.60850  Biso   1.000  C
  C2       1.0000 0.47130  0.35050  0.62470  Biso   1.000  C
  C3       1.0000 0.55270  0.25490  0.64690  Biso   1.000  C
  H1       1.0000 0.16710  0.16440  0.72430  Biso   1.000  H
  H2       1.0000 0.26320  0.11450  0.71240  Biso   1.000  H
  H3       1.0000 0.38820  0.20880  0.57320  Biso   1.000  H
  H4       1.0000 0.37100  0.23350  0.65190  Biso   1.000  H
  H5       1.0000 0.49930  0.37440  0.67250  Biso   1.000  H
  H6       1.0000 0.51660  0.34970  0.59380  Biso   1.000  H
  H7       1.0000 0.06470  0.66300  0.64450  Biso   1.000  H
  H8       1.0000 0.98810  0.76980  0.63630  Biso   1.000  H
  V3       1.0000 0.65930  0.62110  0.58940  Biso   1.000  V
  V4       1.0000 0.26830  0.55990  0.71620  Biso   1.000  V
  P3       1.0000 0.78640  0.87960  0.57420  Biso   1.000  P
  P4       1.0000 0.16060  0.83750  0.67000  Biso   1.000  P
  O8       1.0000 0.69790  0.80430  0.57570  Biso   1.000  O
  O9       1.0000 0.79630  0.92310  0.49900  Biso   1.000  O
  O10      1.0000 0.17080  0.93160  0.60840  Biso   1.000  O
  O11      1.0000 0.23520  0.73590  0.67370  Biso   1.000  O
  O12      1.0000 0.15970  0.90780  0.74070  Biso   1.000  O
  O13      1.0000 0.78970  0.00350  0.61950  Biso   1.000  O
  O14      1.0000 0.70670  0.65210  0.68950  Biso   1.000  O
  C4       1.0000 0.88240  0.77450  0.60850  Biso   1.000  C
  C5       1.0000 0.97130  0.85050  0.62470  Biso   1.000  C
  C6       1.0000 0.05270  0.75490  0.64690  Biso   1.000  C
  H9       1.0000 0.66710  0.66440  0.72430  Biso   1.000  H
  H10      1.0000 0.76320  0.61450  0.71240  Biso   1.000  H
  H11      1.0000 0.88820  0.70880  0.57320  Biso   1.000  H
  H12      1.0000 0.87100  0.73350  0.65190  Biso   1.000  H
  H13      1.0000 0.99930  0.87440  0.67250  Biso   1.000  H
  H14      1.0000 0.01660  0.84970  0.59380  Biso   1.000  H
  H15      1.0000 0.56470  0.16300  0.64450  Biso   1.000  H
  H16      1.0000 0.48810  0.26980  0.63630  Biso   1.000  H
  V5       1.0000 0.84070  0.12110  0.91060  Biso   1.000  V
  V6       1.0000 0.23170  0.05990  0.78380  Biso   1.000  V
  P5       1.0000 0.71360  0.37960  0.92580  Biso   1.000  P
  P6       1.0000 0.33940  0.33750  0.83000  Biso   1.000  P
  O15      1.0000 0.80210  0.30430  0.92430  Biso   1.000  O
  O16      1.0000 0.70370  0.42310  0.00100  Biso   1.000  O
  O17      1.0000 0.32920  0.43160  0.89160  Biso   1.000  O
  O18      1.0000 0.26480  0.23590  0.82630  Biso   1.000  O
  O19      1.0000 0.34030  0.40780  0.75930  Biso   1.000  O
  O20      1.0000 0.71030  0.50350  0.88050  Biso   1.000  O
  O21      1.0000 0.79330  0.15210  0.81050  Biso   1.000  O
  C7       1.0000 0.61760  0.27450  0.89150  Biso   1.000  C
  C8       1.0000 0.52870  0.35050  0.87530  Biso   1.000  C
  C9       1.0000 0.44730  0.25490  0.85310  Biso   1.000  C
  H17      1.0000 0.83290  0.16440  0.77570  Biso   1.000  H
  H18      1.0000 0.73680  0.11450  0.78760  Biso   1.000  H
  H19      1.0000 0.61180  0.20880  0.92680  Biso   1.000  H
  H20      1.0000 0.62900  0.23350  0.84810  Biso   1.000  H
  H21      1.0000 0.50070  0.37440  0.82750  Biso   1.000  H
  H22      1.0000 0.48340  0.34970  0.90620  Biso   1.000  H
  H23      1.0000 0.93530  0.66300  0.85550  Biso   1.000  H
  H24      1.0000 0.01190  0.76980  0.86370  Biso   1.000  H
  V7       1.0000 0.34070  0.62110  0.91060  Biso   1.000  V
  V8       1.0000 0.73170  0.55990  0.78380  Biso   1.000  V
  P7       1.0000 0.21360  0.87960  0.92580  Biso   1.000  P
  P8       1.0000 0.83940  0.83750  0.83000  Biso   1.000  P
  O22      1.0000 0.30210  0.80430  0.92430  Biso   1.000  O
  O23      1.0000 0.20370  0.92310  0.00100  Biso   1.000  O
  O24      1.0000 0.82920  0.93160  0.89160  Biso   1.000  O
  O25      1.0000 0.76480  0.73590  0.82630  Biso   1.000  O
  O26      1.0000 0.84030  0.90780  0.75930  Biso   1.000  O
  O27      1.0000 0.21030  0.00350  0.88050  Biso   1.000  O
  O28      1.0000 0.29330  0.65210  0.81050  Biso   1.000  O
  C10      1.0000 0.11760  0.77450  0.89150  Biso   1.000  C
  C11      1.0000 0.02870  0.85050  0.87530  Biso   1.000  C
  C12      1.0000 0.94730  0.75490  0.85310  Biso   1.000  C
  H25      1.0000 0.33290  0.66440  0.77570  Biso   1.000  H
  H26      1.0000 0.23680  0.61450  0.78760  Biso   1.000  H
  H27      1.0000 0.11180  0.70880  0.92680  Biso   1.000  H
  H28      1.0000 0.12900  0.73350  0.84810  Biso   1.000  H
  H29      1.0000 0.00070  0.87440  0.82750  Biso   1.000  H
  H30      1.0000 0.98340  0.84970  0.90620  Biso   1.000  H
  H31      1.0000 0.43530  0.16300  0.85550  Biso   1.000  H
  H32      1.0000 0.51190  0.26980  0.86370  Biso   1.000  H
  V9       1.0000 0.84070  0.87890  0.41060  Biso   1.000  V
  V10      1.0000 0.23170  0.94010  0.28380  Biso   1.000  V
  P9       1.0000 0.71360  0.62040  0.42580  Biso   1.000  P
  P10      1.0000 0.33940  0.66250  0.33000  Biso   1.000  P
  O29      1.0000 0.80210  0.69570  0.42430  Biso   1.000  O
  O30      1.0000 0.70370  0.57690  0.50100  Biso   1.000  O
  O31      1.0000 0.32920  0.56840  0.39160  Biso   1.000  O
  O32      1.0000 0.26480  0.76410  0.32630  Biso   1.000  O
  O33      1.0000 0.34030  0.59220  0.25930  Biso   1.000  O
  O34      1.0000 0.71030  0.49650  0.38050  Biso   1.000  O
  O35      1.0000 0.79330  0.84790  0.31050  Biso   1.000  O
  C13      1.0000 0.61760  0.72550  0.39150  Biso   1.000  C
  C14      1.0000 0.52870  0.64950  0.37530  Biso   1.000  C
  C15      1.0000 0.44730  0.74510  0.35310  Biso   1.000  C
  H33      1.0000 0.83290  0.83560  0.27570  Biso   1.000  H
  H34      1.0000 0.73680  0.88550  0.28760  Biso   1.000  H
  H35      1.0000 0.61180  0.79120  0.42680  Biso   1.000  H
  H36      1.0000 0.62900  0.76650  0.34810  Biso   1.000  H
  H37      1.0000 0.50070  0.62560  0.32750  Biso   1.000  H
  H38      1.0000 0.48340  0.65030  0.40620  Biso   1.000  H
  H39      1.0000 0.93530  0.33700  0.35550  Biso   1.000  H
  H40      1.0000 0.01190  0.23020  0.36370  Biso   1.000  H
  V11      1.0000 0.34070  0.37890  0.41060  Biso   1.000  V
  V12      1.0000 0.73170  0.44010  0.28380  Biso   1.000  V
  P11      1.0000 0.21360  0.12040  0.42580  Biso   1.000  P
  P12      1.0000 0.83940  0.16250  0.33000  Biso   1.000  P
  O36      1.0000 0.30210  0.19570  0.42430  Biso   1.000  O
  O37      1.0000 0.20370  0.07690  0.50100  Biso   1.000  O
  O38      1.0000 0.82920  0.06840  0.39160  Biso   1.000  O
  O39      1.0000 0.76480  0.26410  0.32630  Biso   1.000  O
  O40      1.0000 0.84030  0.09220  0.25930  Biso   1.000  O
  O41      1.0000 0.21030  0.99650  0.38050  Biso   1.000  O
  O42      1.0000 0.29330  0.34790  0.31050  Biso   1.000  O
  C16      1.0000 0.11760  0.22550  0.39150  Biso   1.000  C
  C17      1.0000 0.02870  0.14950  0.37530  Biso   1.000  C
  C18      1.0000 0.94730  0.24510  0.35310  Biso   1.000  C
  H41      1.0000 0.33290  0.33560  0.27570  Biso   1.000  H
  H42      1.0000 0.23680  0.38550  0.28760  Biso   1.000  H
  H43      1.0000 0.11180  0.29120  0.42680  Biso   1.000  H
  H44      1.0000 0.12900  0.26650  0.34810  Biso   1.000  H
  H45      1.0000 0.00070  0.12560  0.32750  Biso   1.000  H
  H46      1.0000 0.98340  0.15030  0.40620  Biso   1.000  H
  H47      1.0000 0.43530  0.83700  0.35550  Biso   1.000  H
  H48      1.0000 0.51190  0.73020  0.36370  Biso   1.000  H
  V13      1.0000 0.15930  0.87890  0.08940  Biso   1.000  V
  V14      1.0000 0.76830  0.94010  0.21620  Biso   1.000  V
  P13      1.0000 0.28640  0.62040  0.07420  Biso   1.000  P
  P14      1.0000 0.66060  0.66250  0.17000  Biso   1.000  P
  O43      1.0000 0.19790  0.69570  0.07570  Biso   1.000  O
  O44      1.0000 0.29630  0.57690  0.99900  Biso   1.000  O
  O45      1.0000 0.67080  0.56840  0.10840  Biso   1.000  O
  O46      1.0000 0.73520  0.76410  0.17370  Biso   1.000  O
  O47      1.0000 0.65970  0.59220  0.24070  Biso   1.000  O
  O48      1.0000 0.28970  0.49650  0.11950  Biso   1.000  O
  O49      1.0000 0.20670  0.84790  0.18950  Biso   1.000  O
  C19      1.0000 0.38240  0.72550  0.10850  Biso   1.000  C
  C20      1.0000 0.47130  0.64950  0.12470  Biso   1.000  C
  C21      1.0000 0.55270  0.74510  0.14690  Biso   1.000  C
  H49      1.0000 0.16710  0.83560  0.22430  Biso   1.000  H
  H50      1.0000 0.26320  0.88550  0.21240  Biso   1.000  H
  H51      1.0000 0.38820  0.79120  0.07320  Biso   1.000  H
  H52      1.0000 0.37100  0.76650  0.15190  Biso   1.000  H
  H53      1.0000 0.49930  0.62560  0.17250  Biso   1.000  H
  H54      1.0000 0.51660  0.65030  0.09380  Biso   1.000  H
  H55      1.0000 0.06470  0.33700  0.14450  Biso   1.000  H
  H56      1.0000 0.98810  0.23020  0.13630  Biso   1.000  H
  V15      1.0000 0.65930  0.37890  0.08940  Biso   1.000  V
  V16      1.0000 0.26830  0.44010  0.21620  Biso   1.000  V
  P15      1.0000 0.78640  0.12040  0.07420  Biso   1.000  P
  P16      1.0000 0.16060  0.16250  0.17000  Biso   1.000  P
  O50      1.0000 0.69790  0.19570  0.07570  Biso   1.000  O
  O51      1.0000 0.79630  0.07690  0.99900  Biso   1.000  O
  O52      1.0000 0.17080  0.06840  0.10840  Biso   1.000  O
  O53      1.0000 0.23520  0.26410  0.17370  Biso   1.000  O
  O54      1.0000 0.15970  0.09220  0.24070  Biso   1.000  O
  O55      1.0000 0.78970  0.99650  0.11950  Biso   1.000  O
  O56      1.0000 0.70670  0.34790  0.18950  Biso   1.000  O
  C22      1.0000 0.88240  0.22550  0.10850  Biso   1.000  C
  C23      1.0000 0.97130  0.14950  0.12470  Biso   1.000  C
  C24      1.0000 0.05270  0.24510  0.14690  Biso   1.000  C
  H57      1.0000 0.66710  0.33560  0.22430  Biso   1.000  H
  H58      1.0000 0.76320  0.38550  0.21240  Biso   1.000  H
  H59      1.0000 0.88820  0.29120  0.07320  Biso   1.000  H
  H60      1.0000 0.87100  0.26650  0.15190  Biso   1.000  H
  H61      1.0000 0.99930  0.12560  0.17250  Biso   1.000  H
  H62      1.0000 0.01660  0.15030  0.09380  Biso   1.000  H
  H63      1.0000 0.56470  0.83700  0.14450  Biso   1.000  H
  H64      1.0000 0.48810  0.73020  0.13630  Biso   1.000  H
