data_image0
_cell_length_a       13.5941
_cell_length_b       14.3621
_cell_length_c       14.2561
_cell_angle_alpha    90
_cell_angle_beta     96.141
_cell_angle_gamma    90

_symmetry_space_group_name_H-M    "P 1"
_symmetry_int_tables_number       1

loop_
  _symmetry_equiv_pos_as_xyz
  'x, y, z'

loop_
  _atom_site_label
  _atom_site_occupancy
  _atom_site_fract_x
  _atom_site_fract_y
  _atom_site_fract_z
  _atom_site_thermal_displace_type
  _atom_site_B_iso_or_equiv
  _atom_site_type_symbol
  C1       1.0000 0.99988  0.65890  0.34200  Biso   1.000  C
  N1       1.0000 0.99498  0.60263  0.39871  Biso   1.000  N
  C2       1.0000 0.01859  0.34100  0.15853  Biso   1.000  C
  N2       1.0000 0.01852  0.39794  0.10138  Biso   1.000  N
  C3       1.0000 0.01662  0.65763  0.16012  Biso   1.000  C
  N3       1.0000 0.01886  0.60055  0.10370  Biso   1.000  N
  C4       1.0000 0.99875  0.34214  0.33993  Biso   1.000  C
  N4       1.0000 0.99110  0.39978  0.39551  Biso   1.000  N
  N5       1.0000 0.15497  0.49345  0.50892  Biso   1.000  N
  C5       1.0000 0.20997  0.48883  0.59274  Biso   1.000  C
  H1       1.0000 0.17720  0.48520  0.64830  Biso   1.000  H
  C6       1.0000 0.31223  0.48913  0.60180  Biso   1.000  C
  H2       1.0000 0.34810  0.48560  0.66260  Biso   1.000  H
  C7       1.0000 0.36267  0.49470  0.52220  Biso   1.000  C
  C8       1.0000 0.30560  0.49850  0.43550  Biso   1.000  C
  H3       1.0000 0.33650  0.50100  0.37880  Biso   1.000  H
  C9       1.0000 0.20370  0.49870  0.43200  Biso   1.000  C
  H4       1.0000 0.16610  0.50280  0.37200  Biso   1.000  H
  C10      1.0000 0.47170  0.49500  0.53350  Biso   1.000  C
  H5       1.0000 0.50350  0.48720  0.59560  Biso   1.000  H
  N6       1.0000 0.15307  0.49950  0.98762  Biso   1.000  N
  C11      1.0000 0.18930  0.50709  0.90421  Biso   1.000  C
  H6       1.0000 0.14420  0.51150  0.84870  Biso   1.000  H
  C12      1.0000 0.28944  0.50879  0.89545  Biso   1.000  C
  H7       1.0000 0.31180  0.51520  0.83490  Biso   1.000  H
  C13      1.0000 0.35770  0.50110  0.97512  Biso   1.000  C
  C14      1.0000 0.31954  0.49218  0.06171  Biso   1.000  C
  H8       1.0000 0.36290  0.48670  0.11830  Biso   1.000  H
  C15      1.0000 0.21825  0.49129  0.06453  Biso   1.000  C
  H9       1.0000 0.19360  0.48450  0.12400  Biso   1.000  H
  C16      1.0000 0.46443  0.50410  0.96499  Biso   1.000  C
  H10      1.0000 0.48340  0.51240  0.90330  Biso   1.000  H
  N7       1.0000 0.15400  0.50360  0.48850  Biso   1.000  N
  C17      1.0000 0.18860  0.50620  0.40410  Biso   1.000  C
  H11      1.0000 0.14280  0.50520  0.34890  Biso   1.000  H
  C18      1.0000 0.28890  0.51030  0.39460  Biso   1.000  C
  H12      1.0000 0.31120  0.52110  0.33460  Biso   1.000  H
  C19      1.0000 0.35650  0.49850  0.47390  Biso   1.000  C
  C20      1.0000 0.32110  0.49060  0.56110  Biso   1.000  C
  H13      1.0000 0.36540  0.48410  0.61700  Biso   1.000  H
  C21      1.0000 0.21920  0.49250  0.56490  Biso   1.000  C
  H14      1.0000 0.19480  0.48550  0.62450  Biso   1.000  H
  C22      1.0000 0.46400  0.50200  0.46480  Biso   1.000  C
  H15      1.0000 0.48320  0.50750  0.40290  Biso   1.000  H
  C23      1.0000 0.00012  0.15890  0.65800  Biso   1.000  C
  N8       1.0000 0.00502  0.10263  0.60129  Biso   1.000  N
  C24      1.0000 0.98141  0.84100  0.84147  Biso   1.000  C
  N9       1.0000 0.98148  0.89794  0.89862  Biso   1.000  N
  C25      1.0000 0.98338  0.15763  0.83988  Biso   1.000  C
  N10      1.0000 0.98114  0.10055  0.89630  Biso   1.000  N
  C26      1.0000 0.00125  0.84214  0.66007  Biso   1.000  C
  N11      1.0000 0.00890  0.89978  0.60449  Biso   1.000  N
  N12      1.0000 0.84503  0.99345  0.49108  Biso   1.000  N
  C27      1.0000 0.79003  0.98883  0.40726  Biso   1.000  C
  H16      1.0000 0.82280  0.98520  0.35170  Biso   1.000  H
  C28      1.0000 0.68777  0.98913  0.39820  Biso   1.000  C
  H17      1.0000 0.65190  0.98560  0.33740  Biso   1.000  H
  C29      1.0000 0.63733  0.99470  0.47780  Biso   1.000  C
  C30      1.0000 0.69440  0.99850  0.56450  Biso   1.000  C
  H18      1.0000 0.66350  0.00100  0.62120  Biso   1.000  H
  C31      1.0000 0.79630  0.99870  0.56800  Biso   1.000  C
  H19      1.0000 0.83390  0.00280  0.62800  Biso   1.000  H
  C32      1.0000 0.52830  0.99500  0.46650  Biso   1.000  C
  H20      1.0000 0.49650  0.98720  0.40440  Biso   1.000  H
  N13      1.0000 0.84693  0.99950  0.01238  Biso   1.000  N
  C33      1.0000 0.81070  0.00709  0.09579  Biso   1.000  C
  H21      1.0000 0.85580  0.01150  0.15130  Biso   1.000  H
  C34      1.0000 0.71056  0.00879  0.10455  Biso   1.000  C
  H22      1.0000 0.68820  0.01520  0.16510  Biso   1.000  H
  C35      1.0000 0.64230  0.00110  0.02488  Biso   1.000  C
  C36      1.0000 0.68046  0.99218  0.93829  Biso   1.000  C
  H23      1.0000 0.63710  0.98670  0.88170  Biso   1.000  H
  C37      1.0000 0.78175  0.99129  0.93547  Biso   1.000  C
  H24      1.0000 0.80640  0.98450  0.87600  Biso   1.000  H
  C38      1.0000 0.53557  0.00410  0.03501  Biso   1.000  C
  H25      1.0000 0.51660  0.01240  0.09670  Biso   1.000  H
  N14      1.0000 0.84600  0.00360  0.51150  Biso   1.000  N
  C39      1.0000 0.81140  0.00620  0.59590  Biso   1.000  C
  H26      1.0000 0.85720  0.00520  0.65110  Biso   1.000  H
  C40      1.0000 0.71110  0.01030  0.60540  Biso   1.000  C
  H27      1.0000 0.68880  0.02110  0.66540  Biso   1.000  H
  C41      1.0000 0.64350  0.99850  0.52610  Biso   1.000  C
  C42      1.0000 0.67890  0.99060  0.43890  Biso   1.000  C
  H28      1.0000 0.63460  0.98410  0.38300  Biso   1.000  H
  C43      1.0000 0.78080  0.99250  0.43510  Biso   1.000  C
  H29      1.0000 0.80520  0.98550  0.37550  Biso   1.000  H
  C44      1.0000 0.53600  0.00200  0.53520  Biso   1.000  C
  H30      1.0000 0.51680  0.00750  0.59710  Biso   1.000  H
  C45      1.0000 0.00012  0.34110  0.65800  Biso   1.000  C
  N15      1.0000 0.00502  0.39737  0.60129  Biso   1.000  N
  C46      1.0000 0.98141  0.65900  0.84147  Biso   1.000  C
  N16      1.0000 0.98148  0.60206  0.89862  Biso   1.000  N
  C47      1.0000 0.98338  0.34237  0.83988  Biso   1.000  C
  N17      1.0000 0.98114  0.39945  0.89630  Biso   1.000  N
  C48      1.0000 0.00125  0.65786  0.66007  Biso   1.000  C
  N18      1.0000 0.00890  0.60022  0.60449  Biso   1.000  N
  N19      1.0000 0.84503  0.50655  0.49108  Biso   1.000  N
  C49      1.0000 0.79003  0.51117  0.40726  Biso   1.000  C
  H31      1.0000 0.82280  0.51480  0.35170  Biso   1.000  H
  C50      1.0000 0.68777  0.51087  0.39820  Biso   1.000  C
  H32      1.0000 0.65190  0.51440  0.33740  Biso   1.000  H
  C51      1.0000 0.63733  0.50530  0.47780  Biso   1.000  C
  C52      1.0000 0.69440  0.50150  0.56450  Biso   1.000  C
  H33      1.0000 0.66350  0.49900  0.62120  Biso   1.000  H
  C53      1.0000 0.79630  0.50130  0.56800  Biso   1.000  C
  H34      1.0000 0.83390  0.49720  0.62800  Biso   1.000  H
  C54      1.0000 0.52830  0.50500  0.46650  Biso   1.000  C
  H35      1.0000 0.49650  0.51280  0.40440  Biso   1.000  H
  N20      1.0000 0.84693  0.50050  0.01238  Biso   1.000  N
  C55      1.0000 0.81070  0.49291  0.09579  Biso   1.000  C
  H36      1.0000 0.85580  0.48850  0.15130  Biso   1.000  H
  C56      1.0000 0.71056  0.49121  0.10455  Biso   1.000  C
  H37      1.0000 0.68820  0.48480  0.16510  Biso   1.000  H
  C57      1.0000 0.64230  0.49890  0.02488  Biso   1.000  C
  C58      1.0000 0.68046  0.50782  0.93829  Biso   1.000  C
  H38      1.0000 0.63710  0.51330  0.88170  Biso   1.000  H
  C59      1.0000 0.78175  0.50871  0.93547  Biso   1.000  C
  H39      1.0000 0.80640  0.51550  0.87600  Biso   1.000  H
  C60      1.0000 0.53557  0.49590  0.03501  Biso   1.000  C
  H40      1.0000 0.51660  0.48760  0.09670  Biso   1.000  H
  N21      1.0000 0.84600  0.49640  0.51150  Biso   1.000  N
  C61      1.0000 0.81140  0.49380  0.59590  Biso   1.000  C
  H41      1.0000 0.85720  0.49480  0.65110  Biso   1.000  H
  C62      1.0000 0.71110  0.48970  0.60540  Biso   1.000  C
  H42      1.0000 0.68880  0.47890  0.66540  Biso   1.000  H
  C63      1.0000 0.64350  0.50150  0.52610  Biso   1.000  C
  C64      1.0000 0.67890  0.50940  0.43890  Biso   1.000  C
  H43      1.0000 0.63460  0.51590  0.38300  Biso   1.000  H
  C65      1.0000 0.78080  0.50750  0.43510  Biso   1.000  C
  H44      1.0000 0.80520  0.51450  0.37550  Biso   1.000  H
  C66      1.0000 0.53600  0.49800  0.53520  Biso   1.000  C
  H45      1.0000 0.51680  0.49250  0.59710  Biso   1.000  H
  C67      1.0000 0.99988  0.84110  0.34200  Biso   1.000  C
  N22      1.0000 0.99498  0.89737  0.39871  Biso   1.000  N
  C68      1.0000 0.01859  0.15900  0.15853  Biso   1.000  C
  N23      1.0000 0.01852  0.10206  0.10138  Biso   1.000  N
  C69      1.0000 0.01662  0.84237  0.16012  Biso   1.000  C
  N24      1.0000 0.01886  0.89945  0.10370  Biso   1.000  N
  C70      1.0000 0.99875  0.15786  0.33993  Biso   1.000  C
  N25      1.0000 0.99110  0.10022  0.39551  Biso   1.000  N
  N26      1.0000 0.15497  0.00655  0.50892  Biso   1.000  N
  C71      1.0000 0.20997  0.01117  0.59274  Biso   1.000  C
  H46      1.0000 0.17720  0.01480  0.64830  Biso   1.000  H
  C72      1.0000 0.31223  0.01087  0.60180  Biso   1.000  C
  H47      1.0000 0.34810  0.01440  0.66260  Biso   1.000  H
  C73      1.0000 0.36267  0.00530  0.52220  Biso   1.000  C
  C74      1.0000 0.30560  0.00150  0.43550  Biso   1.000  C
  H48      1.0000 0.33650  0.99900  0.37880  Biso   1.000  H
  C75      1.0000 0.20370  0.00130  0.43200  Biso   1.000  C
  H49      1.0000 0.16610  0.99720  0.37200  Biso   1.000  H
  C76      1.0000 0.47170  0.00500  0.53350  Biso   1.000  C
  H50      1.0000 0.50350  0.01280  0.59560  Biso   1.000  H
  N27      1.0000 0.15307  0.00050  0.98762  Biso   1.000  N
  C77      1.0000 0.18930  0.99291  0.90421  Biso   1.000  C
  H51      1.0000 0.14420  0.98850  0.84870  Biso   1.000  H
  C78      1.0000 0.28944  0.99121  0.89545  Biso   1.000  C
  H52      1.0000 0.31180  0.98480  0.83490  Biso   1.000  H
  C79      1.0000 0.35770  0.99890  0.97512  Biso   1.000  C
  C80      1.0000 0.31954  0.00782  0.06171  Biso   1.000  C
  H53      1.0000 0.36290  0.01330  0.11830  Biso   1.000  H
  C81      1.0000 0.21825  0.00871  0.06453  Biso   1.000  C
  H54      1.0000 0.19360  0.01550  0.12400  Biso   1.000  H
  C82      1.0000 0.46443  0.99590  0.96499  Biso   1.000  C
  H55      1.0000 0.48340  0.98760  0.90330  Biso   1.000  H
  N28      1.0000 0.15400  0.99640  0.48850  Biso   1.000  N
  C83      1.0000 0.18860  0.99380  0.40410  Biso   1.000  C
  H56      1.0000 0.14280  0.99480  0.34890  Biso   1.000  H
  C84      1.0000 0.28890  0.98970  0.39460  Biso   1.000  C
  H57      1.0000 0.31120  0.97890  0.33460  Biso   1.000  H
  C85      1.0000 0.35650  0.00150  0.47390  Biso   1.000  C
  C86      1.0000 0.32110  0.00940  0.56110  Biso   1.000  C
  H58      1.0000 0.36540  0.01590  0.61700  Biso   1.000  H
  C87      1.0000 0.21920  0.00750  0.56490  Biso   1.000  C
  H59      1.0000 0.19480  0.01450  0.62450  Biso   1.000  H
  C88      1.0000 0.46400  0.99800  0.46480  Biso   1.000  C
  H60      1.0000 0.48320  0.99250  0.40290  Biso   1.000  H
  Ni1      1.0000 0.00000  0.50000  0.50000  Biso   1.000  Ni
  Ni2      1.0000 0.00000  0.00000  0.50000  Biso   1.000  Ni
  Ni3      1.0000 0.00000  0.50000  0.00000  Biso   1.000  Ni
  Ni4      1.0000 0.00000  0.00000  0.00000  Biso   1.000  Ni
  Ni5      1.0000 0.00927  0.75000  0.25105  Biso   1.000  Ni
  Ni6      1.0000 0.99073  0.25000  0.74895  Biso   1.000  Ni
  Ni7      1.0000 0.01008  0.25000  0.25005  Biso   1.000  Ni
  Ni8      1.0000 0.98992  0.75000  0.74995  Biso   1.000  Ni
