data_image0
_cell_length_a       11.9482
_cell_length_b       11.9482
_cell_length_c       30.657
_cell_angle_alpha    90
_cell_angle_beta     90
_cell_angle_gamma    90

_symmetry_space_group_name_H-M    "P 1"
_symmetry_int_tables_number       1

loop_
  _symmetry_equiv_pos_as_xyz
  'x, y, z'

loop_
  _atom_site_label
  _atom_site_occupancy
  _atom_site_fract_x
  _atom_site_fract_y
  _atom_site_fract_z
  _atom_site_thermal_displace_type
  _atom_site_B_iso_or_equiv
  _atom_site_type_symbol
  O1       1.0000 0.37350  0.49620  0.93980  Biso   1.000  O
  C1       1.0000 0.31290  0.34690  0.90530  Biso   1.000  C
  C2       1.0000 0.30500  0.68900  0.90930  Biso   1.000  C
  O2       1.0000 0.43100  0.65100  0.96910  Biso   1.000  O
  O3       1.0000 0.43440  0.34870  0.96630  Biso   1.000  O
  C3       1.0000 0.30600  0.77600  0.90780  Biso   1.000  C
  C4       1.0000 0.32000  0.22500  0.90480  Biso   1.000  C
  C5       1.0000 0.37050  0.40520  0.93790  Biso   1.000  C
  C6       1.0000 0.36900  0.61600  0.94460  Biso   1.000  C
  O4       1.0000 0.87350  0.99620  0.43980  Biso   1.000  O
  C7       1.0000 0.81290  0.84690  0.40530  Biso   1.000  C
  C8       1.0000 0.80500  0.18900  0.40930  Biso   1.000  C
  O5       1.0000 0.93100  0.15100  0.46910  Biso   1.000  O
  O6       1.0000 0.93440  0.84870  0.46630  Biso   1.000  O
  C9       1.0000 0.80600  0.27600  0.40780  Biso   1.000  C
  C10      1.0000 0.82000  0.72500  0.40480  Biso   1.000  C
  C11      1.0000 0.87050  0.90520  0.43790  Biso   1.000  C
  C12      1.0000 0.86900  0.11600  0.44460  Biso   1.000  C
  O7       1.0000 0.12650  0.00380  0.43980  Biso   1.000  O
  C13      1.0000 0.18710  0.15310  0.40530  Biso   1.000  C
  C14      1.0000 0.19500  0.81100  0.40930  Biso   1.000  C
  O8       1.0000 0.06900  0.84900  0.46910  Biso   1.000  O
  O9       1.0000 0.06560  0.15130  0.46630  Biso   1.000  O
  C15      1.0000 0.19400  0.72400  0.40780  Biso   1.000  C
  C16      1.0000 0.18000  0.27500  0.40480  Biso   1.000  C
  C17      1.0000 0.12950  0.09480  0.43790  Biso   1.000  C
  C18      1.0000 0.13100  0.88400  0.44460  Biso   1.000  C
  O10      1.0000 0.62650  0.50380  0.93980  Biso   1.000  O
  C19      1.0000 0.68710  0.65310  0.90530  Biso   1.000  C
  C20      1.0000 0.69500  0.31100  0.90930  Biso   1.000  C
  O11      1.0000 0.56900  0.34900  0.96910  Biso   1.000  O
  O12      1.0000 0.56560  0.65130  0.96630  Biso   1.000  O
  C21      1.0000 0.69400  0.22400  0.90780  Biso   1.000  C
  C22      1.0000 0.68000  0.77500  0.90480  Biso   1.000  C
  C23      1.0000 0.62950  0.59480  0.93790  Biso   1.000  C
  C24      1.0000 0.63100  0.38400  0.94460  Biso   1.000  C
  O13      1.0000 0.50380  0.87350  0.18980  Biso   1.000  O
  C25      1.0000 0.65310  0.81290  0.15530  Biso   1.000  C
  C26      1.0000 0.31100  0.80500  0.15930  Biso   1.000  C
  O14      1.0000 0.34900  0.93100  0.21910  Biso   1.000  O
  O15      1.0000 0.65130  0.93440  0.21630  Biso   1.000  O
  C27      1.0000 0.22400  0.80600  0.15780  Biso   1.000  C
  C28      1.0000 0.77500  0.82000  0.15480  Biso   1.000  C
  C29      1.0000 0.59480  0.87050  0.18790  Biso   1.000  C
  C30      1.0000 0.38400  0.86900  0.19460  Biso   1.000  C
  O16      1.0000 0.00380  0.37350  0.68980  Biso   1.000  O
  C31      1.0000 0.15310  0.31290  0.65530  Biso   1.000  C
  C32      1.0000 0.81100  0.30500  0.65930  Biso   1.000  C
  O17      1.0000 0.84900  0.43100  0.71910  Biso   1.000  O
  O18      1.0000 0.15130  0.43440  0.71630  Biso   1.000  O
  C33      1.0000 0.72400  0.30600  0.65780  Biso   1.000  C
  C34      1.0000 0.27500  0.32000  0.65480  Biso   1.000  C
  C35      1.0000 0.09480  0.37050  0.68790  Biso   1.000  C
  C36      1.0000 0.88400  0.36900  0.69460  Biso   1.000  C
  O19      1.0000 0.99620  0.62650  0.68980  Biso   1.000  O
  C37      1.0000 0.84690  0.68710  0.65530  Biso   1.000  C
  C38      1.0000 0.18900  0.69500  0.65930  Biso   1.000  C
  O20      1.0000 0.15100  0.56900  0.71910  Biso   1.000  O
  O21      1.0000 0.84870  0.56560  0.71630  Biso   1.000  O
  C39      1.0000 0.27600  0.69400  0.65780  Biso   1.000  C
  C40      1.0000 0.72500  0.68000  0.65480  Biso   1.000  C
  C41      1.0000 0.90520  0.62950  0.68790  Biso   1.000  C
  C42      1.0000 0.11600  0.63100  0.69460  Biso   1.000  C
  O22      1.0000 0.49620  0.12650  0.18980  Biso   1.000  O
  C43      1.0000 0.34690  0.18710  0.15530  Biso   1.000  C
  C44      1.0000 0.68900  0.19500  0.15930  Biso   1.000  C
  O23      1.0000 0.65100  0.06900  0.21910  Biso   1.000  O
  O24      1.0000 0.34870  0.06560  0.21630  Biso   1.000  O
  C45      1.0000 0.77600  0.19400  0.15780  Biso   1.000  C
  C46      1.0000 0.22500  0.18000  0.15480  Biso   1.000  C
  C47      1.0000 0.40520  0.12950  0.18790  Biso   1.000  C
  C48      1.0000 0.61600  0.13100  0.19460  Biso   1.000  C
  O25      1.0000 0.12650  0.49620  0.81020  Biso   1.000  O
  C49      1.0000 0.18710  0.34690  0.84470  Biso   1.000  C
  C50      1.0000 0.19500  0.68900  0.84070  Biso   1.000  C
  O26      1.0000 0.06900  0.65100  0.78090  Biso   1.000  O
  O27      1.0000 0.06560  0.34870  0.78370  Biso   1.000  O
  C51      1.0000 0.19400  0.77600  0.84220  Biso   1.000  C
  C52      1.0000 0.18000  0.22500  0.84520  Biso   1.000  C
  C53      1.0000 0.12950  0.40520  0.81210  Biso   1.000  C
  C54      1.0000 0.13100  0.61600  0.80540  Biso   1.000  C
  O28      1.0000 0.62650  0.99620  0.31020  Biso   1.000  O
  C55      1.0000 0.68710  0.84690  0.34470  Biso   1.000  C
  C56      1.0000 0.69500  0.18900  0.34070  Biso   1.000  C
  O29      1.0000 0.56900  0.15100  0.28090  Biso   1.000  O
  O30      1.0000 0.56560  0.84870  0.28370  Biso   1.000  O
  C57      1.0000 0.69400  0.27600  0.34220  Biso   1.000  C
  C58      1.0000 0.68000  0.72500  0.34520  Biso   1.000  C
  C59      1.0000 0.62950  0.90520  0.31210  Biso   1.000  C
  C60      1.0000 0.63100  0.11600  0.30540  Biso   1.000  C
  O31      1.0000 0.37350  0.00380  0.31020  Biso   1.000  O
  C61      1.0000 0.31290  0.15310  0.34470  Biso   1.000  C
  C62      1.0000 0.30500  0.81100  0.34070  Biso   1.000  C
  O32      1.0000 0.43100  0.84900  0.28090  Biso   1.000  O
  O33      1.0000 0.43440  0.15130  0.28370  Biso   1.000  O
  C63      1.0000 0.30600  0.72400  0.34220  Biso   1.000  C
  C64      1.0000 0.32000  0.27500  0.34520  Biso   1.000  C
  C65      1.0000 0.37050  0.09480  0.31210  Biso   1.000  C
  C66      1.0000 0.36900  0.88400  0.30540  Biso   1.000  C
  O34      1.0000 0.87350  0.50380  0.81020  Biso   1.000  O
  C67      1.0000 0.81290  0.65310  0.84470  Biso   1.000  C
  C68      1.0000 0.80500  0.31100  0.84070  Biso   1.000  C
  O35      1.0000 0.93100  0.34900  0.78090  Biso   1.000  O
  O36      1.0000 0.93440  0.65130  0.78370  Biso   1.000  O
  C69      1.0000 0.80600  0.22400  0.84220  Biso   1.000  C
  C70      1.0000 0.82000  0.77500  0.84520  Biso   1.000  C
  C71      1.0000 0.87050  0.59480  0.81210  Biso   1.000  C
  C72      1.0000 0.86900  0.38400  0.80540  Biso   1.000  C
  O37      1.0000 0.99620  0.87350  0.56020  Biso   1.000  O
  C73      1.0000 0.84690  0.81290  0.59470  Biso   1.000  C
  C74      1.0000 0.18900  0.80500  0.59070  Biso   1.000  C
  O38      1.0000 0.15100  0.93100  0.53090  Biso   1.000  O
  O39      1.0000 0.84870  0.93440  0.53370  Biso   1.000  O
  C75      1.0000 0.27600  0.80600  0.59220  Biso   1.000  C
  C76      1.0000 0.72500  0.82000  0.59520  Biso   1.000  C
  C77      1.0000 0.90520  0.87050  0.56210  Biso   1.000  C
  C78      1.0000 0.11600  0.86900  0.55540  Biso   1.000  C
  O40      1.0000 0.49620  0.37350  0.06020  Biso   1.000  O
  C79      1.0000 0.34690  0.31290  0.09470  Biso   1.000  C
  C80      1.0000 0.68900  0.30500  0.09070  Biso   1.000  C
  O41      1.0000 0.65100  0.43100  0.03090  Biso   1.000  O
  O42      1.0000 0.34870  0.43440  0.03370  Biso   1.000  O
  C81      1.0000 0.77600  0.30600  0.09220  Biso   1.000  C
  C82      1.0000 0.22500  0.32000  0.09520  Biso   1.000  C
  C83      1.0000 0.40520  0.37050  0.06210  Biso   1.000  C
  C84      1.0000 0.61600  0.36900  0.05540  Biso   1.000  C
  O43      1.0000 0.50380  0.62650  0.06020  Biso   1.000  O
  C85      1.0000 0.65310  0.68710  0.09470  Biso   1.000  C
  C86      1.0000 0.31100  0.69500  0.09070  Biso   1.000  C
  O44      1.0000 0.34900  0.56900  0.03090  Biso   1.000  O
  O45      1.0000 0.65130  0.56560  0.03370  Biso   1.000  O
  C87      1.0000 0.22400  0.69400  0.09220  Biso   1.000  C
  C88      1.0000 0.77500  0.68000  0.09520  Biso   1.000  C
  C89      1.0000 0.59480  0.62950  0.06210  Biso   1.000  C
  C90      1.0000 0.38400  0.63100  0.05540  Biso   1.000  C
  O46      1.0000 0.00380  0.12650  0.56020  Biso   1.000  O
  C91      1.0000 0.15310  0.18710  0.59470  Biso   1.000  C
  C92      1.0000 0.81100  0.19500  0.59070  Biso   1.000  C
  O47      1.0000 0.84900  0.06900  0.53090  Biso   1.000  O
  O48      1.0000 0.15130  0.06560  0.53370  Biso   1.000  O
  C93      1.0000 0.72400  0.19400  0.59220  Biso   1.000  C
  C94      1.0000 0.27500  0.18000  0.59520  Biso   1.000  C
  C95      1.0000 0.09480  0.12950  0.56210  Biso   1.000  C
  C96      1.0000 0.88400  0.13100  0.55540  Biso   1.000  C
  In1      1.0000 0.50000  0.50000  0.00000  Biso   1.000  In
  In2      1.0000 0.00000  0.00000  0.50000  Biso   1.000  In
  In3      1.0000 0.50000  0.00000  0.25000  Biso   1.000  In
  In4      1.0000 0.00000  0.50000  0.75000  Biso   1.000  In
  C97      1.0000 0.25000  0.39390  0.87500  Biso   1.000  C
  C98      1.0000 0.25000  0.83870  0.87500  Biso   1.000  C
  N1       1.0000 0.25000  0.95000  0.87500  Biso   1.000  N
  C99      1.0000 0.75000  0.89390  0.37500  Biso   1.000  C
  C100     1.0000 0.75000  0.33870  0.37500  Biso   1.000  C
  N2       1.0000 0.75000  0.45000  0.37500  Biso   1.000  N
  C101     1.0000 0.25000  0.10610  0.37500  Biso   1.000  C
  C102     1.0000 0.25000  0.66130  0.37500  Biso   1.000  C
  N3       1.0000 0.25000  0.55000  0.37500  Biso   1.000  N
  C103     1.0000 0.75000  0.60610  0.87500  Biso   1.000  C
  C104     1.0000 0.75000  0.16130  0.87500  Biso   1.000  C
  N4       1.0000 0.75000  0.05000  0.87500  Biso   1.000  N
  C105     1.0000 0.60610  0.75000  0.12500  Biso   1.000  C
  C106     1.0000 0.16130  0.75000  0.12500  Biso   1.000  C
  N5       1.0000 0.05000  0.75000  0.12500  Biso   1.000  N
  C107     1.0000 0.10610  0.25000  0.62500  Biso   1.000  C
  C108     1.0000 0.66130  0.25000  0.62500  Biso   1.000  C
  N6       1.0000 0.55000  0.25000  0.62500  Biso   1.000  N
  C109     1.0000 0.89390  0.75000  0.62500  Biso   1.000  C
  C110     1.0000 0.33870  0.75000  0.62500  Biso   1.000  C
  N7       1.0000 0.45000  0.75000  0.62500  Biso   1.000  N
  C111     1.0000 0.39390  0.25000  0.12500  Biso   1.000  C
  C112     1.0000 0.83870  0.25000  0.12500  Biso   1.000  C
  N8       1.0000 0.95000  0.25000  0.12500  Biso   1.000  N
