data_image0
_cell_length_a       15.947
_cell_length_b       15.391
_cell_length_c       19.064
_cell_angle_alpha    90
_cell_angle_beta     101.182
_cell_angle_gamma    90

_symmetry_space_group_name_H-M    "P 1"
_symmetry_int_tables_number       1

loop_
  _symmetry_equiv_pos_as_xyz
  'x, y, z'

loop_
  _atom_site_label
  _atom_site_occupancy
  _atom_site_fract_x
  _atom_site_fract_y
  _atom_site_fract_z
  _atom_site_thermal_displace_type
  _atom_site_B_iso_or_equiv
  _atom_site_type_symbol
  C1       1.0000 0.37540  0.98200  0.11730  Biso   1.000  C
  H1       1.0000 0.41990  0.95840  0.09850  Biso   1.000  H
  C2       1.0000 0.33710  0.05830  0.08940  Biso   1.000  C
  C3       1.0000 0.27090  0.09420  0.11820  Biso   1.000  C
  H2       1.0000 0.24660  0.14680  0.10100  Biso   1.000  H
  C4       1.0000 0.24090  0.05030  0.17340  Biso   1.000  C
  C5       1.0000 0.28170  0.97630  0.20340  Biso   1.000  C
  H3       1.0000 0.26540  0.95080  0.24290  Biso   1.000  H
  C6       1.0000 0.34700  0.93970  0.17450  Biso   1.000  C
  C7       1.0000 0.39290  0.85800  0.20270  Biso   1.000  C
  C8       1.0000 0.16680  0.09290  0.19920  Biso   1.000  C
  C9       1.0000 0.37350  0.11000  0.03660  Biso   1.000  C
  C10      1.0000 0.38110  0.20000  0.03260  Biso   1.000  C
  H4       1.0000 0.37090  0.23460  0.07010  Biso   1.000  H
  C11      1.0000 0.40340  0.23830  0.97370  Biso   1.000  C
  H5       1.0000 0.41060  0.29820  0.97340  Biso   1.000  H
  N1       1.0000 0.41580  0.19030  0.91430  Biso   1.000  N
  C12      1.0000 0.41290  0.10700  0.91940  Biso   1.000  C
  H6       1.0000 0.43050  0.07440  0.88390  Biso   1.000  H
  C13      1.0000 0.38520  0.06180  0.97470  Biso   1.000  C
  H7       1.0000 0.37470  0.00230  0.97130  Biso   1.000  H
  O1       1.0000 0.13790  0.15860  0.16790  Biso   1.000  O
  O2       1.0000 0.14000  0.05820  0.25130  Biso   1.000  O
  O3       1.0000 0.44300  0.82620  0.16590  Biso   1.000  O
  O4       1.0000 0.37710  0.82490  0.26030  Biso   1.000  O
  Co1      1.0000 0.54025  0.74172  0.17026  Biso   1.000  Co
  C14      1.0000 0.36000  0.09800  0.02090  Biso   1.000  C
  C15      1.0000 0.44870  0.11140  0.02680  Biso   1.000  C
  H8       1.0000 0.48830  0.09420  0.06680  Biso   1.000  H
  C16      1.0000 0.47210  0.15180  0.96940  Biso   1.000  C
  H9       1.0000 0.53040  0.15470  0.96960  Biso   1.000  H
  C17      1.0000 0.33470  0.16890  0.90660  Biso   1.000  C
  H10      1.0000 0.29850  0.18470  0.86420  Biso   1.000  H
  C18      1.0000 0.30120  0.12740  0.96310  Biso   1.000  C
  H11      1.0000 0.24270  0.12090  0.96070  Biso   1.000  H
  N2       1.0000 0.42370  0.18500  0.91680  Biso   1.000  N
  C19      1.0000 0.87540  0.48200  0.11730  Biso   1.000  C
  H12      1.0000 0.91990  0.45840  0.09850  Biso   1.000  H
  C20      1.0000 0.83710  0.55830  0.08940  Biso   1.000  C
  C21      1.0000 0.77090  0.59420  0.11820  Biso   1.000  C
  H13      1.0000 0.74660  0.64680  0.10100  Biso   1.000  H
  C22      1.0000 0.74090  0.55030  0.17340  Biso   1.000  C
  C23      1.0000 0.78170  0.47630  0.20340  Biso   1.000  C
  H14      1.0000 0.76540  0.45080  0.24290  Biso   1.000  H
  C24      1.0000 0.84700  0.43970  0.17450  Biso   1.000  C
  C25      1.0000 0.89290  0.35800  0.20270  Biso   1.000  C
  C26      1.0000 0.66680  0.59290  0.19920  Biso   1.000  C
  C27      1.0000 0.87350  0.61000  0.03660  Biso   1.000  C
  C28      1.0000 0.88110  0.70000  0.03260  Biso   1.000  C
  H15      1.0000 0.87090  0.73460  0.07010  Biso   1.000  H
  C29      1.0000 0.90340  0.73830  0.97370  Biso   1.000  C
  H16      1.0000 0.91060  0.79820  0.97340  Biso   1.000  H
  N3       1.0000 0.91580  0.69030  0.91430  Biso   1.000  N
  C30      1.0000 0.91290  0.60700  0.91940  Biso   1.000  C
  H17      1.0000 0.93050  0.57440  0.88390  Biso   1.000  H
  C31      1.0000 0.88520  0.56180  0.97470  Biso   1.000  C
  H18      1.0000 0.87470  0.50230  0.97130  Biso   1.000  H
  O5       1.0000 0.63790  0.65860  0.16790  Biso   1.000  O
  O6       1.0000 0.64000  0.55820  0.25130  Biso   1.000  O
  O7       1.0000 0.94300  0.32620  0.16590  Biso   1.000  O
  O8       1.0000 0.87710  0.32490  0.26030  Biso   1.000  O
  Co2      1.0000 0.04025  0.24172  0.17026  Biso   1.000  Co
  C32      1.0000 0.86000  0.59800  0.02090  Biso   1.000  C
  C33      1.0000 0.94870  0.61140  0.02680  Biso   1.000  C
  H19      1.0000 0.98830  0.59420  0.06680  Biso   1.000  H
  C34      1.0000 0.97210  0.65180  0.96940  Biso   1.000  C
  H20      1.0000 0.03040  0.65470  0.96960  Biso   1.000  H
  C35      1.0000 0.83470  0.66890  0.90660  Biso   1.000  C
  H21      1.0000 0.79850  0.68470  0.86420  Biso   1.000  H
  C36      1.0000 0.80120  0.62740  0.96310  Biso   1.000  C
  H22      1.0000 0.74270  0.62090  0.96070  Biso   1.000  H
  N4       1.0000 0.92370  0.68500  0.91680  Biso   1.000  N
  C37      1.0000 0.62460  0.98200  0.38270  Biso   1.000  C
  H23      1.0000 0.58010  0.95840  0.40150  Biso   1.000  H
  C38      1.0000 0.66290  0.05830  0.41060  Biso   1.000  C
  C39      1.0000 0.72910  0.09420  0.38180  Biso   1.000  C
  H24      1.0000 0.75340  0.14680  0.39900  Biso   1.000  H
  C40      1.0000 0.75910  0.05030  0.32660  Biso   1.000  C
  C41      1.0000 0.71830  0.97630  0.29660  Biso   1.000  C
  H25      1.0000 0.73460  0.95080  0.25710  Biso   1.000  H
  C42      1.0000 0.65300  0.93970  0.32550  Biso   1.000  C
  C43      1.0000 0.60710  0.85800  0.29730  Biso   1.000  C
  C44      1.0000 0.83320  0.09290  0.30080  Biso   1.000  C
  C45      1.0000 0.62650  0.11000  0.46340  Biso   1.000  C
  C46      1.0000 0.61890  0.20000  0.46740  Biso   1.000  C
  H26      1.0000 0.62910  0.23460  0.42990  Biso   1.000  H
  C47      1.0000 0.59660  0.23830  0.52630  Biso   1.000  C
  H27      1.0000 0.58940  0.29820  0.52660  Biso   1.000  H
  N5       1.0000 0.58420  0.19030  0.58570  Biso   1.000  N
  C48      1.0000 0.58710  0.10700  0.58060  Biso   1.000  C
  H28      1.0000 0.56950  0.07440  0.61610  Biso   1.000  H
  C49      1.0000 0.61480  0.06180  0.52530  Biso   1.000  C
  H29      1.0000 0.62530  0.00230  0.52870  Biso   1.000  H
  O9       1.0000 0.86210  0.15860  0.33210  Biso   1.000  O
  O10      1.0000 0.86000  0.05820  0.24870  Biso   1.000  O
  O11      1.0000 0.55700  0.82620  0.33410  Biso   1.000  O
  O12      1.0000 0.62290  0.82490  0.23970  Biso   1.000  O
  Co3      1.0000 0.45975  0.74172  0.32974  Biso   1.000  Co
  C50      1.0000 0.64000  0.09800  0.47910  Biso   1.000  C
  C51      1.0000 0.55130  0.11140  0.47320  Biso   1.000  C
  H30      1.0000 0.51170  0.09420  0.43320  Biso   1.000  H
  C52      1.0000 0.52790  0.15180  0.53060  Biso   1.000  C
  H31      1.0000 0.46960  0.15470  0.53040  Biso   1.000  H
  C53      1.0000 0.66530  0.16890  0.59340  Biso   1.000  C
  H32      1.0000 0.70150  0.18470  0.63580  Biso   1.000  H
  C54      1.0000 0.69880  0.12740  0.53690  Biso   1.000  C
  H33      1.0000 0.75730  0.12090  0.53930  Biso   1.000  H
  N6       1.0000 0.57630  0.18500  0.58320  Biso   1.000  N
  C55      1.0000 0.12460  0.48200  0.38270  Biso   1.000  C
  H34      1.0000 0.08010  0.45840  0.40150  Biso   1.000  H
  C56      1.0000 0.16290  0.55830  0.41060  Biso   1.000  C
  C57      1.0000 0.22910  0.59420  0.38180  Biso   1.000  C
  H35      1.0000 0.25340  0.64680  0.39900  Biso   1.000  H
  C58      1.0000 0.25910  0.55030  0.32660  Biso   1.000  C
  C59      1.0000 0.21830  0.47630  0.29660  Biso   1.000  C
  H36      1.0000 0.23460  0.45080  0.25710  Biso   1.000  H
  C60      1.0000 0.15300  0.43970  0.32550  Biso   1.000  C
  C61      1.0000 0.10710  0.35800  0.29730  Biso   1.000  C
  C62      1.0000 0.33320  0.59290  0.30080  Biso   1.000  C
  C63      1.0000 0.12650  0.61000  0.46340  Biso   1.000  C
  C64      1.0000 0.11890  0.70000  0.46740  Biso   1.000  C
  H37      1.0000 0.12910  0.73460  0.42990  Biso   1.000  H
  C65      1.0000 0.09660  0.73830  0.52630  Biso   1.000  C
  H38      1.0000 0.08940  0.79820  0.52660  Biso   1.000  H
  N7       1.0000 0.08420  0.69030  0.58570  Biso   1.000  N
  C66      1.0000 0.08710  0.60700  0.58060  Biso   1.000  C
  H39      1.0000 0.06950  0.57440  0.61610  Biso   1.000  H
  C67      1.0000 0.11480  0.56180  0.52530  Biso   1.000  C
  H40      1.0000 0.12530  0.50230  0.52870  Biso   1.000  H
  O13      1.0000 0.36210  0.65860  0.33210  Biso   1.000  O
  O14      1.0000 0.36000  0.55820  0.24870  Biso   1.000  O
  O15      1.0000 0.05700  0.32620  0.33410  Biso   1.000  O
  O16      1.0000 0.12290  0.32490  0.23970  Biso   1.000  O
  Co4      1.0000 0.95975  0.24172  0.32974  Biso   1.000  Co
  C68      1.0000 0.14000  0.59800  0.47910  Biso   1.000  C
  C69      1.0000 0.05130  0.61140  0.47320  Biso   1.000  C
  H41      1.0000 0.01170  0.59420  0.43320  Biso   1.000  H
  C70      1.0000 0.02790  0.65180  0.53060  Biso   1.000  C
  H42      1.0000 0.96960  0.65470  0.53040  Biso   1.000  H
  C71      1.0000 0.16530  0.66890  0.59340  Biso   1.000  C
  H43      1.0000 0.20150  0.68470  0.63580  Biso   1.000  H
  C72      1.0000 0.19880  0.62740  0.53690  Biso   1.000  C
  H44      1.0000 0.25730  0.62090  0.53930  Biso   1.000  H
  N8       1.0000 0.07630  0.68500  0.58320  Biso   1.000  N
  C73      1.0000 0.62460  0.01800  0.88270  Biso   1.000  C
  H45      1.0000 0.58010  0.04160  0.90150  Biso   1.000  H
  C74      1.0000 0.66290  0.94170  0.91060  Biso   1.000  C
  C75      1.0000 0.72910  0.90580  0.88180  Biso   1.000  C
  H46      1.0000 0.75340  0.85320  0.89900  Biso   1.000  H
  C76      1.0000 0.75910  0.94970  0.82660  Biso   1.000  C
  C77      1.0000 0.71830  0.02370  0.79660  Biso   1.000  C
  H47      1.0000 0.73460  0.04920  0.75710  Biso   1.000  H
  C78      1.0000 0.65300  0.06030  0.82550  Biso   1.000  C
  C79      1.0000 0.60710  0.14200  0.79730  Biso   1.000  C
  C80      1.0000 0.83320  0.90710  0.80080  Biso   1.000  C
  C81      1.0000 0.62650  0.89000  0.96340  Biso   1.000  C
  C82      1.0000 0.61890  0.80000  0.96740  Biso   1.000  C
  H48      1.0000 0.62910  0.76540  0.92990  Biso   1.000  H
  C83      1.0000 0.59660  0.76170  0.02630  Biso   1.000  C
  H49      1.0000 0.58940  0.70180  0.02660  Biso   1.000  H
  N9       1.0000 0.58420  0.80970  0.08570  Biso   1.000  N
  C84      1.0000 0.58710  0.89300  0.08060  Biso   1.000  C
  H50      1.0000 0.56950  0.92560  0.11610  Biso   1.000  H
  C85      1.0000 0.61480  0.93820  0.02530  Biso   1.000  C
  H51      1.0000 0.62530  0.99770  0.02870  Biso   1.000  H
  O17      1.0000 0.86210  0.84140  0.83210  Biso   1.000  O
  O18      1.0000 0.86000  0.94180  0.74870  Biso   1.000  O
  O19      1.0000 0.55700  0.17380  0.83410  Biso   1.000  O
  O20      1.0000 0.62290  0.17510  0.73970  Biso   1.000  O
  Co5      1.0000 0.45975  0.25828  0.82974  Biso   1.000  Co
  C86      1.0000 0.64000  0.90200  0.97910  Biso   1.000  C
  C87      1.0000 0.55130  0.88860  0.97320  Biso   1.000  C
  H52      1.0000 0.51170  0.90580  0.93320  Biso   1.000  H
  C88      1.0000 0.52790  0.84820  0.03060  Biso   1.000  C
  H53      1.0000 0.46960  0.84530  0.03040  Biso   1.000  H
  C89      1.0000 0.66530  0.83110  0.09340  Biso   1.000  C
  H54      1.0000 0.70150  0.81530  0.13580  Biso   1.000  H
  C90      1.0000 0.69880  0.87260  0.03690  Biso   1.000  C
  H55      1.0000 0.75730  0.87910  0.03930  Biso   1.000  H
  N10      1.0000 0.57630  0.81500  0.08320  Biso   1.000  N
  C91      1.0000 0.12460  0.51800  0.88270  Biso   1.000  C
  H56      1.0000 0.08010  0.54160  0.90150  Biso   1.000  H
  C92      1.0000 0.16290  0.44170  0.91060  Biso   1.000  C
  C93      1.0000 0.22910  0.40580  0.88180  Biso   1.000  C
  H57      1.0000 0.25340  0.35320  0.89900  Biso   1.000  H
  C94      1.0000 0.25910  0.44970  0.82660  Biso   1.000  C
  C95      1.0000 0.21830  0.52370  0.79660  Biso   1.000  C
  H58      1.0000 0.23460  0.54920  0.75710  Biso   1.000  H
  C96      1.0000 0.15300  0.56030  0.82550  Biso   1.000  C
  C97      1.0000 0.10710  0.64200  0.79730  Biso   1.000  C
  C98      1.0000 0.33320  0.40710  0.80080  Biso   1.000  C
  C99      1.0000 0.12650  0.39000  0.96340  Biso   1.000  C
  C100     1.0000 0.11890  0.30000  0.96740  Biso   1.000  C
  H59      1.0000 0.12910  0.26540  0.92990  Biso   1.000  H
  C101     1.0000 0.09660  0.26170  0.02630  Biso   1.000  C
  H60      1.0000 0.08940  0.20180  0.02660  Biso   1.000  H
  N11      1.0000 0.08420  0.30970  0.08570  Biso   1.000  N
  C102     1.0000 0.08710  0.39300  0.08060  Biso   1.000  C
  H61      1.0000 0.06950  0.42560  0.11610  Biso   1.000  H
  C103     1.0000 0.11480  0.43820  0.02530  Biso   1.000  C
  H62      1.0000 0.12530  0.49770  0.02870  Biso   1.000  H
  O21      1.0000 0.36210  0.34140  0.83210  Biso   1.000  O
  O22      1.0000 0.36000  0.44180  0.74870  Biso   1.000  O
  O23      1.0000 0.05700  0.67380  0.83410  Biso   1.000  O
  O24      1.0000 0.12290  0.67510  0.73970  Biso   1.000  O
  Co6      1.0000 0.95975  0.75828  0.82974  Biso   1.000  Co
  C104     1.0000 0.14000  0.40200  0.97910  Biso   1.000  C
  C105     1.0000 0.05130  0.38860  0.97320  Biso   1.000  C
  H63      1.0000 0.01170  0.40580  0.93320  Biso   1.000  H
  C106     1.0000 0.02790  0.34820  0.03060  Biso   1.000  C
  H64      1.0000 0.96960  0.34530  0.03040  Biso   1.000  H
  C107     1.0000 0.16530  0.33110  0.09340  Biso   1.000  C
  H65      1.0000 0.20150  0.31530  0.13580  Biso   1.000  H
  C108     1.0000 0.19880  0.37260  0.03690  Biso   1.000  C
  H66      1.0000 0.25730  0.37910  0.03930  Biso   1.000  H
  N12      1.0000 0.07630  0.31500  0.08320  Biso   1.000  N
  C109     1.0000 0.37540  0.01800  0.61730  Biso   1.000  C
  H67      1.0000 0.41990  0.04160  0.59850  Biso   1.000  H
  C110     1.0000 0.33710  0.94170  0.58940  Biso   1.000  C
  C111     1.0000 0.27090  0.90580  0.61820  Biso   1.000  C
  H68      1.0000 0.24660  0.85320  0.60100  Biso   1.000  H
  C112     1.0000 0.24090  0.94970  0.67340  Biso   1.000  C
  C113     1.0000 0.28170  0.02370  0.70340  Biso   1.000  C
  H69      1.0000 0.26540  0.04920  0.74290  Biso   1.000  H
  C114     1.0000 0.34700  0.06030  0.67450  Biso   1.000  C
  C115     1.0000 0.39290  0.14200  0.70270  Biso   1.000  C
  C116     1.0000 0.16680  0.90710  0.69920  Biso   1.000  C
  C117     1.0000 0.37350  0.89000  0.53660  Biso   1.000  C
  C118     1.0000 0.38110  0.80000  0.53260  Biso   1.000  C
  H70      1.0000 0.37090  0.76540  0.57010  Biso   1.000  H
  C119     1.0000 0.40340  0.76170  0.47370  Biso   1.000  C
  H71      1.0000 0.41060  0.70180  0.47340  Biso   1.000  H
  N13      1.0000 0.41580  0.80970  0.41430  Biso   1.000  N
  C120     1.0000 0.41290  0.89300  0.41940  Biso   1.000  C
  H72      1.0000 0.43050  0.92560  0.38390  Biso   1.000  H
  C121     1.0000 0.38520  0.93820  0.47470  Biso   1.000  C
  H73      1.0000 0.37470  0.99770  0.47130  Biso   1.000  H
  O25      1.0000 0.13790  0.84140  0.66790  Biso   1.000  O
  O26      1.0000 0.14000  0.94180  0.75130  Biso   1.000  O
  O27      1.0000 0.44300  0.17380  0.66590  Biso   1.000  O
  O28      1.0000 0.37710  0.17510  0.76030  Biso   1.000  O
  Co7      1.0000 0.54025  0.25828  0.67026  Biso   1.000  Co
  C122     1.0000 0.36000  0.90200  0.52090  Biso   1.000  C
  C123     1.0000 0.44870  0.88860  0.52680  Biso   1.000  C
  H74      1.0000 0.48830  0.90580  0.56680  Biso   1.000  H
  C124     1.0000 0.47210  0.84820  0.46940  Biso   1.000  C
  H75      1.0000 0.53040  0.84530  0.46960  Biso   1.000  H
  C125     1.0000 0.33470  0.83110  0.40660  Biso   1.000  C
  H76      1.0000 0.29850  0.81530  0.36420  Biso   1.000  H
  C126     1.0000 0.30120  0.87260  0.46310  Biso   1.000  C
  H77      1.0000 0.24270  0.87910  0.46070  Biso   1.000  H
  N14      1.0000 0.42370  0.81500  0.41680  Biso   1.000  N
  C127     1.0000 0.87540  0.51800  0.61730  Biso   1.000  C
  H78      1.0000 0.91990  0.54160  0.59850  Biso   1.000  H
  C128     1.0000 0.83710  0.44170  0.58940  Biso   1.000  C
  C129     1.0000 0.77090  0.40580  0.61820  Biso   1.000  C
  H79      1.0000 0.74660  0.35320  0.60100  Biso   1.000  H
  C130     1.0000 0.74090  0.44970  0.67340  Biso   1.000  C
  C131     1.0000 0.78170  0.52370  0.70340  Biso   1.000  C
  H80      1.0000 0.76540  0.54920  0.74290  Biso   1.000  H
  C132     1.0000 0.84700  0.56030  0.67450  Biso   1.000  C
  C133     1.0000 0.89290  0.64200  0.70270  Biso   1.000  C
  C134     1.0000 0.66680  0.40710  0.69920  Biso   1.000  C
  C135     1.0000 0.87350  0.39000  0.53660  Biso   1.000  C
  C136     1.0000 0.88110  0.30000  0.53260  Biso   1.000  C
  H81      1.0000 0.87090  0.26540  0.57010  Biso   1.000  H
  C137     1.0000 0.90340  0.26170  0.47370  Biso   1.000  C
  H82      1.0000 0.91060  0.20180  0.47340  Biso   1.000  H
  N15      1.0000 0.91580  0.30970  0.41430  Biso   1.000  N
  C138     1.0000 0.91290  0.39300  0.41940  Biso   1.000  C
  H83      1.0000 0.93050  0.42560  0.38390  Biso   1.000  H
  C139     1.0000 0.88520  0.43820  0.47470  Biso   1.000  C
  H84      1.0000 0.87470  0.49770  0.47130  Biso   1.000  H
  O29      1.0000 0.63790  0.34140  0.66790  Biso   1.000  O
  O30      1.0000 0.64000  0.44180  0.75130  Biso   1.000  O
  O31      1.0000 0.94300  0.67380  0.66590  Biso   1.000  O
  O32      1.0000 0.87710  0.67510  0.76030  Biso   1.000  O
  Co8      1.0000 0.04025  0.75828  0.67026  Biso   1.000  Co
  C140     1.0000 0.86000  0.40200  0.52090  Biso   1.000  C
  C141     1.0000 0.94870  0.38860  0.52680  Biso   1.000  C
  H85      1.0000 0.98830  0.40580  0.56680  Biso   1.000  H
  C142     1.0000 0.97210  0.34820  0.46940  Biso   1.000  C
  H86      1.0000 0.03040  0.34530  0.46960  Biso   1.000  H
  C143     1.0000 0.83470  0.33110  0.40660  Biso   1.000  C
  H87      1.0000 0.79850  0.31530  0.36420  Biso   1.000  H
  C144     1.0000 0.80120  0.37260  0.46310  Biso   1.000  C
  H88      1.0000 0.74270  0.37910  0.46070  Biso   1.000  H
  N16      1.0000 0.92370  0.31500  0.41680  Biso   1.000  N
  Na1      1.0000 0.50000  0.55020  0.25000  Biso   1.000  Na
  O33      1.0000 0.50000  0.65960  0.25000  Biso   1.000  O
  Na2      1.0000 0.00000  0.05020  0.25000  Biso   1.000  Na
  O34      1.0000 0.00000  0.15960  0.25000  Biso   1.000  O
  Na3      1.0000 0.50000  0.44980  0.75000  Biso   1.000  Na
  O35      1.0000 0.50000  0.34040  0.75000  Biso   1.000  O
  Na4      1.0000 0.00000  0.94980  0.75000  Biso   1.000  Na
  O36      1.0000 0.00000  0.84040  0.75000  Biso   1.000  O
