data_image0
_cell_length_a       26.4842
_cell_length_b       5.891
_cell_length_c       21.4712
_cell_angle_alpha    90
_cell_angle_beta     111.538
_cell_angle_gamma    90

_symmetry_space_group_name_H-M    "P 1"
_symmetry_int_tables_number       1

loop_
  _symmetry_equiv_pos_as_xyz
  'x, y, z'

loop_
  _atom_site_label
  _atom_site_occupancy
  _atom_site_fract_x
  _atom_site_fract_y
  _atom_site_fract_z
  _atom_site_thermal_displace_type
  _atom_site_B_iso_or_equiv
  _atom_site_type_symbol
  O1       1.0000 0.05920  0.87730  0.30285  Biso   1.000  O
  O2       1.0000 0.11910  0.66120  0.28800  Biso   1.000  O
  N1       1.0000 0.99425  0.47210  0.32211  Biso   1.000  N
  C1       1.0000 0.10690  0.81740  0.31520  Biso   1.000  C
  C2       1.0000 0.14950  0.94500  0.37000  Biso   1.000  C
  C3       1.0000 0.13650  0.11430  0.40320  Biso   1.000  C
  H1       1.0000 0.10030  0.15580  0.39150  Biso   1.000  H
  C4       1.0000 0.17610  0.22830  0.45460  Biso   1.000  C
  H2       1.0000 0.16520  0.33940  0.47780  Biso   1.000  H
  C5       1.0000 0.22890  0.18700  0.47250  Biso   1.000  C
  C6       1.0000 0.24320  0.07700  0.42510  Biso   1.000  C
  C7       1.0000 0.20440  0.95400  0.37370  Biso   1.000  C
  C8       1.0000 0.96380  0.28320  0.30580  Biso   1.000  C
  H3       1.0000 0.94350  0.25640  0.26080  Biso   1.000  H
  C9       1.0000 0.96110  0.12910  0.35180  Biso   1.000  C
  H4       1.0000 0.93980  0.99990  0.33790  Biso   1.000  H
  C10      1.0000 0.99040  0.16520  0.41930  Biso   1.000  C
  C11      1.0000 0.02120  0.36110  0.43660  Biso   1.000  C
  H5       1.0000 0.04090  0.39290  0.48140  Biso   1.000  H
  C12      1.0000 0.02290  0.51060  0.38750  Biso   1.000  C
  H6       1.0000 0.04430  0.64020  0.39990  Biso   1.000  H
  C13      1.0000 0.98640  0.99620  0.46820  Biso   1.000  C
  H7       1.0000 0.96250  0.87560  0.45190  Biso   1.000  H
  C14      1.0000 0.23850  0.94800  0.45830  Biso   1.000  C
  C15      1.0000 0.19940  0.83400  0.40760  Biso   1.000  C
  O3       1.0000 0.55920  0.37730  0.30285  Biso   1.000  O
  O4       1.0000 0.61910  0.16120  0.28800  Biso   1.000  O
  N2       1.0000 0.49425  0.97210  0.32211  Biso   1.000  N
  C16      1.0000 0.60690  0.31740  0.31520  Biso   1.000  C
  C17      1.0000 0.64950  0.44500  0.37000  Biso   1.000  C
  C18      1.0000 0.63650  0.61430  0.40320  Biso   1.000  C
  H8       1.0000 0.60030  0.65580  0.39150  Biso   1.000  H
  C19      1.0000 0.67610  0.72830  0.45460  Biso   1.000  C
  H9       1.0000 0.66520  0.83940  0.47780  Biso   1.000  H
  C20      1.0000 0.72890  0.68700  0.47250  Biso   1.000  C
  C21      1.0000 0.74320  0.57700  0.42510  Biso   1.000  C
  C22      1.0000 0.70440  0.45400  0.37370  Biso   1.000  C
  C23      1.0000 0.46380  0.78320  0.30580  Biso   1.000  C
  H10      1.0000 0.44350  0.75640  0.26080  Biso   1.000  H
  C24      1.0000 0.46110  0.62910  0.35180  Biso   1.000  C
  H11      1.0000 0.43980  0.49990  0.33790  Biso   1.000  H
  C25      1.0000 0.49040  0.66520  0.41930  Biso   1.000  C
  C26      1.0000 0.52120  0.86110  0.43660  Biso   1.000  C
  H12      1.0000 0.54090  0.89290  0.48140  Biso   1.000  H
  C27      1.0000 0.52290  0.01060  0.38750  Biso   1.000  C
  H13      1.0000 0.54430  0.14020  0.39990  Biso   1.000  H
  C28      1.0000 0.48640  0.49620  0.46820  Biso   1.000  C
  H14      1.0000 0.46250  0.37560  0.45190  Biso   1.000  H
  C29      1.0000 0.73850  0.44800  0.45830  Biso   1.000  C
  C30      1.0000 0.69940  0.33400  0.40760  Biso   1.000  C
  O5       1.0000 0.94080  0.87730  0.19715  Biso   1.000  O
  O6       1.0000 0.88090  0.66120  0.21200  Biso   1.000  O
  N3       1.0000 0.00575  0.47210  0.17789  Biso   1.000  N
  C31      1.0000 0.89310  0.81740  0.18480  Biso   1.000  C
  C32      1.0000 0.85050  0.94500  0.13000  Biso   1.000  C
  C33      1.0000 0.86350  0.11430  0.09680  Biso   1.000  C
  H15      1.0000 0.89970  0.15580  0.10850  Biso   1.000  H
  C34      1.0000 0.82390  0.22830  0.04540  Biso   1.000  C
  H16      1.0000 0.83480  0.33940  0.02220  Biso   1.000  H
  C35      1.0000 0.77110  0.18700  0.02750  Biso   1.000  C
  C36      1.0000 0.75680  0.07700  0.07490  Biso   1.000  C
  C37      1.0000 0.79560  0.95400  0.12630  Biso   1.000  C
  C38      1.0000 0.03620  0.28320  0.19420  Biso   1.000  C
  H17      1.0000 0.05650  0.25640  0.23920  Biso   1.000  H
  C39      1.0000 0.03890  0.12910  0.14820  Biso   1.000  C
  H18      1.0000 0.06020  0.99990  0.16210  Biso   1.000  H
  C40      1.0000 0.00960  0.16520  0.08070  Biso   1.000  C
  C41      1.0000 0.97880  0.36110  0.06340  Biso   1.000  C
  H19      1.0000 0.95910  0.39290  0.01860  Biso   1.000  H
  C42      1.0000 0.97710  0.51060  0.11250  Biso   1.000  C
  H20      1.0000 0.95570  0.64020  0.10010  Biso   1.000  H
  C43      1.0000 0.01360  0.99620  0.03180  Biso   1.000  C
  H21      1.0000 0.03750  0.87560  0.04810  Biso   1.000  H
  C44      1.0000 0.76150  0.94800  0.04170  Biso   1.000  C
  C45      1.0000 0.80060  0.83400  0.09240  Biso   1.000  C
  O7       1.0000 0.44080  0.37730  0.19715  Biso   1.000  O
  O8       1.0000 0.38090  0.16120  0.21200  Biso   1.000  O
  N4       1.0000 0.50575  0.97210  0.17789  Biso   1.000  N
  C46      1.0000 0.39310  0.31740  0.18480  Biso   1.000  C
  C47      1.0000 0.35050  0.44500  0.13000  Biso   1.000  C
  C48      1.0000 0.36350  0.61430  0.09680  Biso   1.000  C
  H22      1.0000 0.39970  0.65580  0.10850  Biso   1.000  H
  C49      1.0000 0.32390  0.72830  0.04540  Biso   1.000  C
  H23      1.0000 0.33480  0.83940  0.02220  Biso   1.000  H
  C50      1.0000 0.27110  0.68700  0.02750  Biso   1.000  C
  C51      1.0000 0.25680  0.57700  0.07490  Biso   1.000  C
  C52      1.0000 0.29560  0.45400  0.12630  Biso   1.000  C
  C53      1.0000 0.53620  0.78320  0.19420  Biso   1.000  C
  H24      1.0000 0.55650  0.75640  0.23920  Biso   1.000  H
  C54      1.0000 0.53890  0.62910  0.14820  Biso   1.000  C
  H25      1.0000 0.56020  0.49990  0.16210  Biso   1.000  H
  C55      1.0000 0.50960  0.66520  0.08070  Biso   1.000  C
  C56      1.0000 0.47880  0.86110  0.06340  Biso   1.000  C
  H26      1.0000 0.45910  0.89290  0.01860  Biso   1.000  H
  C57      1.0000 0.47710  0.01060  0.11250  Biso   1.000  C
  H27      1.0000 0.45570  0.14020  0.10010  Biso   1.000  H
  C58      1.0000 0.51360  0.49620  0.03180  Biso   1.000  C
  H28      1.0000 0.53750  0.37560  0.04810  Biso   1.000  H
  C59      1.0000 0.26150  0.44800  0.04170  Biso   1.000  C
  C60      1.0000 0.30060  0.33400  0.09240  Biso   1.000  C
  O9       1.0000 0.94080  0.12270  0.69715  Biso   1.000  O
  O10      1.0000 0.88090  0.33880  0.71200  Biso   1.000  O
  N5       1.0000 0.00575  0.52790  0.67789  Biso   1.000  N
  C61      1.0000 0.89310  0.18260  0.68480  Biso   1.000  C
  C62      1.0000 0.85050  0.05500  0.63000  Biso   1.000  C
  C63      1.0000 0.86350  0.88570  0.59680  Biso   1.000  C
  H29      1.0000 0.89970  0.84420  0.60850  Biso   1.000  H
  C64      1.0000 0.82390  0.77170  0.54540  Biso   1.000  C
  H30      1.0000 0.83480  0.66060  0.52220  Biso   1.000  H
  C65      1.0000 0.77110  0.81300  0.52750  Biso   1.000  C
  C66      1.0000 0.75680  0.92300  0.57490  Biso   1.000  C
  C67      1.0000 0.79560  0.04600  0.62630  Biso   1.000  C
  C68      1.0000 0.03620  0.71680  0.69420  Biso   1.000  C
  H31      1.0000 0.05650  0.74360  0.73920  Biso   1.000  H
  C69      1.0000 0.03890  0.87090  0.64820  Biso   1.000  C
  H32      1.0000 0.06020  0.00010  0.66210  Biso   1.000  H
  C70      1.0000 0.00960  0.83480  0.58070  Biso   1.000  C
  C71      1.0000 0.97880  0.63890  0.56340  Biso   1.000  C
  H33      1.0000 0.95910  0.60710  0.51860  Biso   1.000  H
  C72      1.0000 0.97710  0.48940  0.61250  Biso   1.000  C
  H34      1.0000 0.95570  0.35980  0.60010  Biso   1.000  H
  C73      1.0000 0.01360  0.00380  0.53180  Biso   1.000  C
  H35      1.0000 0.03750  0.12440  0.54810  Biso   1.000  H
  C74      1.0000 0.76150  0.05200  0.54170  Biso   1.000  C
  C75      1.0000 0.80060  0.16600  0.59240  Biso   1.000  C
  O11      1.0000 0.44080  0.62270  0.69715  Biso   1.000  O
  O12      1.0000 0.38090  0.83880  0.71200  Biso   1.000  O
  N6       1.0000 0.50575  0.02790  0.67789  Biso   1.000  N
  C76      1.0000 0.39310  0.68260  0.68480  Biso   1.000  C
  C77      1.0000 0.35050  0.55500  0.63000  Biso   1.000  C
  C78      1.0000 0.36350  0.38570  0.59680  Biso   1.000  C
  H36      1.0000 0.39970  0.34420  0.60850  Biso   1.000  H
  C79      1.0000 0.32390  0.27170  0.54540  Biso   1.000  C
  H37      1.0000 0.33480  0.16060  0.52220  Biso   1.000  H
  C80      1.0000 0.27110  0.31300  0.52750  Biso   1.000  C
  C81      1.0000 0.25680  0.42300  0.57490  Biso   1.000  C
  C82      1.0000 0.29560  0.54600  0.62630  Biso   1.000  C
  C83      1.0000 0.53620  0.21680  0.69420  Biso   1.000  C
  H38      1.0000 0.55650  0.24360  0.73920  Biso   1.000  H
  C84      1.0000 0.53890  0.37090  0.64820  Biso   1.000  C
  H39      1.0000 0.56020  0.50010  0.66210  Biso   1.000  H
  C85      1.0000 0.50960  0.33480  0.58070  Biso   1.000  C
  C86      1.0000 0.47880  0.13890  0.56340  Biso   1.000  C
  H40      1.0000 0.45910  0.10710  0.51860  Biso   1.000  H
  C87      1.0000 0.47710  0.98940  0.61250  Biso   1.000  C
  H41      1.0000 0.45570  0.85980  0.60010  Biso   1.000  H
  C88      1.0000 0.51360  0.50380  0.53180  Biso   1.000  C
  H42      1.0000 0.53750  0.62440  0.54810  Biso   1.000  H
  C89      1.0000 0.26150  0.55200  0.54170  Biso   1.000  C
  C90      1.0000 0.30060  0.66600  0.59240  Biso   1.000  C
  O13      1.0000 0.05920  0.12270  0.80285  Biso   1.000  O
  O14      1.0000 0.11910  0.33880  0.78800  Biso   1.000  O
  N7       1.0000 0.99425  0.52790  0.82211  Biso   1.000  N
  C91      1.0000 0.10690  0.18260  0.81520  Biso   1.000  C
  C92      1.0000 0.14950  0.05500  0.87000  Biso   1.000  C
  C93      1.0000 0.13650  0.88570  0.90320  Biso   1.000  C
  H43      1.0000 0.10030  0.84420  0.89150  Biso   1.000  H
  C94      1.0000 0.17610  0.77170  0.95460  Biso   1.000  C
  H44      1.0000 0.16520  0.66060  0.97780  Biso   1.000  H
  C95      1.0000 0.22890  0.81300  0.97250  Biso   1.000  C
  C96      1.0000 0.24320  0.92300  0.92510  Biso   1.000  C
  C97      1.0000 0.20440  0.04600  0.87370  Biso   1.000  C
  C98      1.0000 0.96380  0.71680  0.80580  Biso   1.000  C
  H45      1.0000 0.94350  0.74360  0.76080  Biso   1.000  H
  C99      1.0000 0.96110  0.87090  0.85180  Biso   1.000  C
  H46      1.0000 0.93980  0.00010  0.83790  Biso   1.000  H
  C100     1.0000 0.99040  0.83480  0.91930  Biso   1.000  C
  C101     1.0000 0.02120  0.63890  0.93660  Biso   1.000  C
  H47      1.0000 0.04090  0.60710  0.98140  Biso   1.000  H
  C102     1.0000 0.02290  0.48940  0.88750  Biso   1.000  C
  H48      1.0000 0.04430  0.35980  0.89990  Biso   1.000  H
  C103     1.0000 0.98640  0.00380  0.96820  Biso   1.000  C
  H49      1.0000 0.96250  0.12440  0.95190  Biso   1.000  H
  C104     1.0000 0.23850  0.05200  0.95830  Biso   1.000  C
  C105     1.0000 0.19940  0.16600  0.90760  Biso   1.000  C
  O15      1.0000 0.55920  0.62270  0.80285  Biso   1.000  O
  O16      1.0000 0.61910  0.83880  0.78800  Biso   1.000  O
  N8       1.0000 0.49425  0.02790  0.82211  Biso   1.000  N
  C106     1.0000 0.60690  0.68260  0.81520  Biso   1.000  C
  C107     1.0000 0.64950  0.55500  0.87000  Biso   1.000  C
  C108     1.0000 0.63650  0.38570  0.90320  Biso   1.000  C
  H50      1.0000 0.60030  0.34420  0.89150  Biso   1.000  H
  C109     1.0000 0.67610  0.27170  0.95460  Biso   1.000  C
  H51      1.0000 0.66520  0.16060  0.97780  Biso   1.000  H
  C110     1.0000 0.72890  0.31300  0.97250  Biso   1.000  C
  C111     1.0000 0.74320  0.42300  0.92510  Biso   1.000  C
  C112     1.0000 0.70440  0.54600  0.87370  Biso   1.000  C
  C113     1.0000 0.46380  0.21680  0.80580  Biso   1.000  C
  H52      1.0000 0.44350  0.24360  0.76080  Biso   1.000  H
  C114     1.0000 0.46110  0.37090  0.85180  Biso   1.000  C
  H53      1.0000 0.43980  0.50010  0.83790  Biso   1.000  H
  C115     1.0000 0.49040  0.33480  0.91930  Biso   1.000  C
  C116     1.0000 0.52120  0.13890  0.93660  Biso   1.000  C
  H54      1.0000 0.54090  0.10710  0.98140  Biso   1.000  H
  C117     1.0000 0.52290  0.98940  0.88750  Biso   1.000  C
  H55      1.0000 0.54430  0.85980  0.89990  Biso   1.000  H
  C118     1.0000 0.48640  0.50380  0.96820  Biso   1.000  C
  H56      1.0000 0.46250  0.62440  0.95190  Biso   1.000  H
  C119     1.0000 0.73850  0.55200  0.95830  Biso   1.000  C
  C120     1.0000 0.69940  0.66600  0.90760  Biso   1.000  C
  Zn1      1.0000 0.00000  0.68393  0.25000  Biso   1.000  Zn
  Zn2      1.0000 0.50000  0.18393  0.25000  Biso   1.000  Zn
  Zn3      1.0000 0.00000  0.31607  0.75000  Biso   1.000  Zn
  Zn4      1.0000 0.50000  0.81607  0.75000  Biso   1.000  Zn
