data_image0
_cell_length_a       43.39
_cell_length_b       13.602
_cell_length_c       8.773
_cell_angle_alpha    90
_cell_angle_beta     90
_cell_angle_gamma    90

_symmetry_space_group_name_H-M    "P 1"
_symmetry_int_tables_number       1

loop_
  _symmetry_equiv_pos_as_xyz
  'x, y, z'

loop_
  _atom_site_label
  _atom_site_occupancy
  _atom_site_fract_x
  _atom_site_fract_y
  _atom_site_fract_z
  _atom_site_thermal_displace_type
  _atom_site_B_iso_or_equiv
  _atom_site_type_symbol
  N1       1.0000 0.03100  0.27500  0.44200  Biso   1.000  N
  N2       1.0000 0.09860  0.37500  0.43900  Biso   1.000  N
  N3       1.0000 0.15910  0.88200  0.56000  Biso   1.000  N
  N4       1.0000 0.22700  0.79400  0.55800  Biso   1.000  N
  C1       1.0000 0.01500  0.28000  0.54300  Biso   1.000  C
  C2       1.0000 0.10760  0.41700  0.53900  Biso   1.000  C
  C3       1.0000 0.14450  0.90100  0.45700  Biso   1.000  C
  C4       1.0000 0.24150  0.77200  0.45700  Biso   1.000  C
  C5       1.0000 0.07600  0.66100  0.89500  Biso   1.000  C
  N5       1.0000 0.46900  0.77500  0.55800  Biso   1.000  N
  N6       1.0000 0.40140  0.87500  0.56100  Biso   1.000  N
  N7       1.0000 0.34090  0.38200  0.44000  Biso   1.000  N
  N8       1.0000 0.27300  0.29400  0.44200  Biso   1.000  N
  C6       1.0000 0.48500  0.78000  0.45700  Biso   1.000  C
  C7       1.0000 0.39240  0.91700  0.46100  Biso   1.000  C
  C8       1.0000 0.35550  0.40100  0.54300  Biso   1.000  C
  C9       1.0000 0.25850  0.27200  0.54300  Biso   1.000  C
  C10      1.0000 0.42400  0.16100  0.10500  Biso   1.000  C
  N9       1.0000 0.96900  0.72500  0.94200  Biso   1.000  N
  N10      1.0000 0.90140  0.62500  0.93900  Biso   1.000  N
  N11      1.0000 0.84090  0.11800  0.06000  Biso   1.000  N
  N12      1.0000 0.77300  0.20600  0.05800  Biso   1.000  N
  C11      1.0000 0.98500  0.72000  0.04300  Biso   1.000  C
  C12      1.0000 0.89240  0.58300  0.03900  Biso   1.000  C
  C13      1.0000 0.85550  0.09900  0.95700  Biso   1.000  C
  C14      1.0000 0.75850  0.22800  0.95700  Biso   1.000  C
  C15      1.0000 0.92400  0.33900  0.39500  Biso   1.000  C
  N13      1.0000 0.53100  0.22500  0.05800  Biso   1.000  N
  N14      1.0000 0.59860  0.12500  0.06100  Biso   1.000  N
  N15      1.0000 0.65910  0.61800  0.94000  Biso   1.000  N
  N16      1.0000 0.72700  0.70600  0.94200  Biso   1.000  N
  C16      1.0000 0.51500  0.22000  0.95700  Biso   1.000  C
  C17      1.0000 0.60760  0.08300  0.96100  Biso   1.000  C
  C18      1.0000 0.64450  0.59900  0.04300  Biso   1.000  C
  C19      1.0000 0.74150  0.72800  0.04300  Biso   1.000  C
  C20      1.0000 0.57600  0.83900  0.60500  Biso   1.000  C
  N17      1.0000 0.96900  0.72500  0.55800  Biso   1.000  N
  N18      1.0000 0.90140  0.62500  0.56100  Biso   1.000  N
  N19      1.0000 0.84090  0.11800  0.44000  Biso   1.000  N
  N20      1.0000 0.77300  0.20600  0.44200  Biso   1.000  N
  C21      1.0000 0.98500  0.72000  0.45700  Biso   1.000  C
  C22      1.0000 0.89240  0.58300  0.46100  Biso   1.000  C
  C23      1.0000 0.85550  0.09900  0.54300  Biso   1.000  C
  C24      1.0000 0.75850  0.22800  0.54300  Biso   1.000  C
  C25      1.0000 0.92400  0.33900  0.10500  Biso   1.000  C
  N21      1.0000 0.53100  0.22500  0.44200  Biso   1.000  N
  N22      1.0000 0.59860  0.12500  0.43900  Biso   1.000  N
  N23      1.0000 0.65910  0.61800  0.56000  Biso   1.000  N
  N24      1.0000 0.72700  0.70600  0.55800  Biso   1.000  N
  C26      1.0000 0.51500  0.22000  0.54300  Biso   1.000  C
  C27      1.0000 0.60760  0.08300  0.53900  Biso   1.000  C
  C28      1.0000 0.64450  0.59900  0.45700  Biso   1.000  C
  C29      1.0000 0.74150  0.72800  0.45700  Biso   1.000  C
  C30      1.0000 0.57600  0.83900  0.89500  Biso   1.000  C
  N25      1.0000 0.03100  0.27500  0.05800  Biso   1.000  N
  N26      1.0000 0.09860  0.37500  0.06100  Biso   1.000  N
  N27      1.0000 0.15910  0.88200  0.94000  Biso   1.000  N
  N28      1.0000 0.22700  0.79400  0.94200  Biso   1.000  N
  C31      1.0000 0.01500  0.28000  0.95700  Biso   1.000  C
  C32      1.0000 0.10760  0.41700  0.96100  Biso   1.000  C
  C33      1.0000 0.14450  0.90100  0.04300  Biso   1.000  C
  C34      1.0000 0.24150  0.77200  0.04300  Biso   1.000  C
  C35      1.0000 0.07600  0.66100  0.60500  Biso   1.000  C
  N29      1.0000 0.46900  0.77500  0.94200  Biso   1.000  N
  N30      1.0000 0.40140  0.87500  0.93900  Biso   1.000  N
  N31      1.0000 0.34090  0.38200  0.06000  Biso   1.000  N
  N32      1.0000 0.27300  0.29400  0.05800  Biso   1.000  N
  C36      1.0000 0.48500  0.78000  0.04300  Biso   1.000  C
  C37      1.0000 0.39240  0.91700  0.03900  Biso   1.000  C
  C38      1.0000 0.35550  0.40100  0.95700  Biso   1.000  C
  C39      1.0000 0.25850  0.27200  0.95700  Biso   1.000  C
  C40      1.0000 0.42400  0.16100  0.39500  Biso   1.000  C
  Cd1      1.0000 0.06455  0.31460  0.25000  Biso   1.000  Cd
  Cd2      1.0000 0.01291  0.69480  0.25000  Biso   1.000  Cd
  Cd3      1.0000 0.11654  0.93470  0.25000  Biso   1.000  Cd
  N33      1.0000 0.08730  0.15800  0.25000  Biso   1.000  N
  N34      1.0000 0.04500  0.47100  0.25000  Biso   1.000  N
  C41      1.0000 0.09720  0.08200  0.25000  Biso   1.000  C
  C42      1.0000 0.03350  0.54500  0.25000  Biso   1.000  C
  C43      1.0000 0.05480  0.79100  0.25000  Biso   1.000  C
  C44      1.0000 0.07620  0.83200  0.25000  Biso   1.000  C
  Cd4      1.0000 0.43545  0.81460  0.75000  Biso   1.000  Cd
  Cd5      1.0000 0.48709  0.19480  0.75000  Biso   1.000  Cd
  Cd6      1.0000 0.38346  0.43470  0.75000  Biso   1.000  Cd
  N35      1.0000 0.41270  0.65800  0.75000  Biso   1.000  N
  N36      1.0000 0.45500  0.97100  0.75000  Biso   1.000  N
  C45      1.0000 0.40280  0.58200  0.75000  Biso   1.000  C
  C46      1.0000 0.46650  0.04500  0.75000  Biso   1.000  C
  C47      1.0000 0.44520  0.29100  0.75000  Biso   1.000  C
  C48      1.0000 0.42380  0.33200  0.75000  Biso   1.000  C
  Cd7      1.0000 0.93545  0.68540  0.75000  Biso   1.000  Cd
  Cd8      1.0000 0.98709  0.30520  0.75000  Biso   1.000  Cd
  Cd9      1.0000 0.88346  0.06530  0.75000  Biso   1.000  Cd
  N37      1.0000 0.91270  0.84200  0.75000  Biso   1.000  N
  N38      1.0000 0.95500  0.52900  0.75000  Biso   1.000  N
  C49      1.0000 0.90280  0.91800  0.75000  Biso   1.000  C
  C50      1.0000 0.96650  0.45500  0.75000  Biso   1.000  C
  C51      1.0000 0.94520  0.20900  0.75000  Biso   1.000  C
  C52      1.0000 0.92380  0.16800  0.75000  Biso   1.000  C
  Cd10     1.0000 0.56455  0.18540  0.25000  Biso   1.000  Cd
  Cd11     1.0000 0.51291  0.80520  0.25000  Biso   1.000  Cd
  Cd12     1.0000 0.61654  0.56530  0.25000  Biso   1.000  Cd
  N39      1.0000 0.58730  0.34200  0.25000  Biso   1.000  N
  N40      1.0000 0.54500  0.02900  0.25000  Biso   1.000  N
  C53      1.0000 0.59720  0.41800  0.25000  Biso   1.000  C
  C54      1.0000 0.53350  0.95500  0.25000  Biso   1.000  C
  C55      1.0000 0.55480  0.70900  0.25000  Biso   1.000  C
  C56      1.0000 0.57620  0.66800  0.25000  Biso   1.000  C
  Cd13     1.0000 0.19273  0.83630  0.75000  Biso   1.000  Cd
  Cd14     1.0000 0.23129  0.23800  0.75000  Biso   1.000  Cd
  Cd15     1.0000 0.11966  0.49670  0.75000  Biso   1.000  Cd
  N41      1.0000 0.16820  0.68100  0.75000  Biso   1.000  N
  N42      1.0000 0.21170  0.00000  0.75000  Biso   1.000  N
  N43      1.0000 0.16680  0.36000  0.75000  Biso   1.000  N
  C57      1.0000 0.15350  0.61600  0.75000  Biso   1.000  C
  C58      1.0000 0.22000  0.07900  0.75000  Biso   1.000  C
  C59      1.0000 0.18530  0.31900  0.75000  Biso   1.000  C
  N44      1.0000 0.07520  0.59900  0.75000  Biso   1.000  N
  C60      1.0000 0.04950  0.53800  0.75000  Biso   1.000  C
  Cd16     1.0000 0.30727  0.33630  0.25000  Biso   1.000  Cd
  Cd17     1.0000 0.26871  0.73800  0.25000  Biso   1.000  Cd
  Cd18     1.0000 0.38034  0.99670  0.25000  Biso   1.000  Cd
  N45      1.0000 0.33180  0.18100  0.25000  Biso   1.000  N
  N46      1.0000 0.28830  0.50000  0.25000  Biso   1.000  N
  N47      1.0000 0.33320  0.86000  0.25000  Biso   1.000  N
  C61      1.0000 0.34650  0.11600  0.25000  Biso   1.000  C
  C62      1.0000 0.28000  0.57900  0.25000  Biso   1.000  C
  C63      1.0000 0.31470  0.81900  0.25000  Biso   1.000  C
  N48      1.0000 0.42480  0.09900  0.25000  Biso   1.000  N
  C64      1.0000 0.45050  0.03800  0.25000  Biso   1.000  C
  Cd19     1.0000 0.80727  0.16370  0.25000  Biso   1.000  Cd
  Cd20     1.0000 0.76871  0.76200  0.25000  Biso   1.000  Cd
  Cd21     1.0000 0.88034  0.50330  0.25000  Biso   1.000  Cd
  N49      1.0000 0.83180  0.31900  0.25000  Biso   1.000  N
  N50      1.0000 0.78830  0.00000  0.25000  Biso   1.000  N
  N51      1.0000 0.83320  0.64000  0.25000  Biso   1.000  N
  C65      1.0000 0.84650  0.38400  0.25000  Biso   1.000  C
  C66      1.0000 0.78000  0.92100  0.25000  Biso   1.000  C
  C67      1.0000 0.81470  0.68100  0.25000  Biso   1.000  C
  N52      1.0000 0.92480  0.40100  0.25000  Biso   1.000  N
  C68      1.0000 0.95050  0.46200  0.25000  Biso   1.000  C
  Cd22     1.0000 0.69273  0.66370  0.75000  Biso   1.000  Cd
  Cd23     1.0000 0.73129  0.26200  0.75000  Biso   1.000  Cd
  Cd24     1.0000 0.61966  0.00330  0.75000  Biso   1.000  Cd
  N53      1.0000 0.66820  0.81900  0.75000  Biso   1.000  N
  N54      1.0000 0.71170  0.50000  0.75000  Biso   1.000  N
  N55      1.0000 0.66680  0.14000  0.75000  Biso   1.000  N
  C69      1.0000 0.65350  0.88400  0.75000  Biso   1.000  C
  C70      1.0000 0.72000  0.42100  0.75000  Biso   1.000  C
  C71      1.0000 0.68530  0.18100  0.75000  Biso   1.000  C
  N56      1.0000 0.57520  0.90100  0.75000  Biso   1.000  N
  C72      1.0000 0.54950  0.96200  0.75000  Biso   1.000  C
