data_image0
_cell_length_a       21.607
_cell_length_b       21.607
_cell_length_c       21.607
_cell_angle_alpha    90
_cell_angle_beta     90
_cell_angle_gamma    90

_symmetry_space_group_name_H-M    "P 1"
_symmetry_int_tables_number       1

loop_
  _symmetry_equiv_pos_as_xyz
  'x, y, z'

loop_
  _atom_site_label
  _atom_site_occupancy
  _atom_site_fract_x
  _atom_site_fract_y
  _atom_site_fract_z
  _atom_site_thermal_displace_type
  _atom_site_B_iso_or_equiv
  _atom_site_type_symbol
  Cu1      1.0000 0.00000  0.00000  0.43841  Biso   1.000  Cu
  Cu2      1.0000 0.50000  0.50000  0.93841  Biso   1.000  Cu
  Cu3      1.0000 0.00000  0.00000  0.56159  Biso   1.000  Cu
  Cu4      1.0000 0.50000  0.50000  0.06159  Biso   1.000  Cu
  Cu5      1.0000 0.43841  0.00000  0.00000  Biso   1.000  Cu
  Cu6      1.0000 0.93841  0.50000  0.50000  Biso   1.000  Cu
  Cu7      1.0000 0.56159  0.00000  0.00000  Biso   1.000  Cu
  Cu8      1.0000 0.06159  0.50000  0.50000  Biso   1.000  Cu
  Cu9      1.0000 0.00000  0.43841  0.00000  Biso   1.000  Cu
  Cu10     1.0000 0.50000  0.93841  0.50000  Biso   1.000  Cu
  Cu11     1.0000 0.00000  0.56159  0.00000  Biso   1.000  Cu
  Cu12     1.0000 0.50000  0.06159  0.50000  Biso   1.000  Cu
  O1       1.0000 0.08990  0.00000  0.44800  Biso   1.000  O
  C1       1.0000 0.21450  0.00000  0.44660  Biso   1.000  C
  O2       1.0000 0.58990  0.50000  0.94800  Biso   1.000  O
  C2       1.0000 0.71450  0.50000  0.94660  Biso   1.000  C
  O3       1.0000 0.91010  0.00000  0.44800  Biso   1.000  O
  C3       1.0000 0.78550  0.00000  0.44660  Biso   1.000  C
  O4       1.0000 0.41010  0.50000  0.94800  Biso   1.000  O
  C4       1.0000 0.28550  0.50000  0.94660  Biso   1.000  C
  O5       1.0000 0.91010  0.00000  0.55200  Biso   1.000  O
  C5       1.0000 0.78550  0.00000  0.55340  Biso   1.000  C
  O6       1.0000 0.41010  0.50000  0.05200  Biso   1.000  O
  C6       1.0000 0.28550  0.50000  0.05340  Biso   1.000  C
  O7       1.0000 0.08990  0.00000  0.55200  Biso   1.000  O
  C7       1.0000 0.21450  0.00000  0.55340  Biso   1.000  C
  O8       1.0000 0.58990  0.50000  0.05200  Biso   1.000  O
  C8       1.0000 0.71450  0.50000  0.05340  Biso   1.000  C
  O9       1.0000 0.44800  0.08990  0.00000  Biso   1.000  O
  C9       1.0000 0.44660  0.21450  0.00000  Biso   1.000  C
  O10      1.0000 0.94800  0.58990  0.50000  Biso   1.000  O
  C10      1.0000 0.94660  0.71450  0.50000  Biso   1.000  C
  O11      1.0000 0.44800  0.91010  0.00000  Biso   1.000  O
  C11      1.0000 0.44660  0.78550  0.00000  Biso   1.000  C
  O12      1.0000 0.94800  0.41010  0.50000  Biso   1.000  O
  C12      1.0000 0.94660  0.28550  0.50000  Biso   1.000  C
  O13      1.0000 0.55200  0.91010  0.00000  Biso   1.000  O
  C13      1.0000 0.55340  0.78550  0.00000  Biso   1.000  C
  O14      1.0000 0.05200  0.41010  0.50000  Biso   1.000  O
  C14      1.0000 0.05340  0.28550  0.50000  Biso   1.000  C
  O15      1.0000 0.55200  0.08990  0.00000  Biso   1.000  O
  C15      1.0000 0.55340  0.21450  0.00000  Biso   1.000  C
  O16      1.0000 0.05200  0.58990  0.50000  Biso   1.000  O
  C16      1.0000 0.05340  0.71450  0.50000  Biso   1.000  C
  O17      1.0000 0.00000  0.44800  0.08990  Biso   1.000  O
  C17      1.0000 0.00000  0.44660  0.21450  Biso   1.000  C
  O18      1.0000 0.50000  0.94800  0.58990  Biso   1.000  O
  C18      1.0000 0.50000  0.94660  0.71450  Biso   1.000  C
  O19      1.0000 0.00000  0.44800  0.91010  Biso   1.000  O
  C19      1.0000 0.00000  0.44660  0.78550  Biso   1.000  C
  O20      1.0000 0.50000  0.94800  0.41010  Biso   1.000  O
  C20      1.0000 0.50000  0.94660  0.28550  Biso   1.000  C
  O21      1.0000 0.00000  0.55200  0.91010  Biso   1.000  O
  C21      1.0000 0.00000  0.55340  0.78550  Biso   1.000  C
  O22      1.0000 0.50000  0.05200  0.41010  Biso   1.000  O
  C22      1.0000 0.50000  0.05340  0.28550  Biso   1.000  C
  O23      1.0000 0.00000  0.55200  0.08990  Biso   1.000  O
  C23      1.0000 0.00000  0.55340  0.21450  Biso   1.000  C
  O24      1.0000 0.50000  0.05200  0.58990  Biso   1.000  O
  C24      1.0000 0.50000  0.05340  0.71450  Biso   1.000  C
  O25      1.0000 0.00000  0.08990  0.55200  Biso   1.000  O
  C25      1.0000 0.00000  0.21450  0.55340  Biso   1.000  C
  O26      1.0000 0.50000  0.58990  0.05200  Biso   1.000  O
  C26      1.0000 0.50000  0.71450  0.05340  Biso   1.000  C
  O27      1.0000 0.00000  0.91010  0.55200  Biso   1.000  O
  C27      1.0000 0.00000  0.78550  0.55340  Biso   1.000  C
  O28      1.0000 0.50000  0.41010  0.05200  Biso   1.000  O
  C28      1.0000 0.50000  0.28550  0.05340  Biso   1.000  C
  O29      1.0000 0.00000  0.91010  0.44800  Biso   1.000  O
  C29      1.0000 0.00000  0.78550  0.44660  Biso   1.000  C
  O30      1.0000 0.50000  0.41010  0.94800  Biso   1.000  O
  C30      1.0000 0.50000  0.28550  0.94660  Biso   1.000  C
  O31      1.0000 0.00000  0.08990  0.44800  Biso   1.000  O
  C31      1.0000 0.00000  0.21450  0.44660  Biso   1.000  C
  O32      1.0000 0.50000  0.58990  0.94800  Biso   1.000  O
  C32      1.0000 0.50000  0.71450  0.94660  Biso   1.000  C
  O33      1.0000 0.08990  0.44800  0.00000  Biso   1.000  O
  C33      1.0000 0.21450  0.44660  0.00000  Biso   1.000  C
  O34      1.0000 0.58990  0.94800  0.50000  Biso   1.000  O
  C34      1.0000 0.71450  0.94660  0.50000  Biso   1.000  C
  O35      1.0000 0.91010  0.44800  0.00000  Biso   1.000  O
  C35      1.0000 0.78550  0.44660  0.00000  Biso   1.000  C
  O36      1.0000 0.41010  0.94800  0.50000  Biso   1.000  O
  C36      1.0000 0.28550  0.94660  0.50000  Biso   1.000  C
  O37      1.0000 0.91010  0.55200  0.00000  Biso   1.000  O
  C37      1.0000 0.78550  0.55340  0.00000  Biso   1.000  C
  O38      1.0000 0.41010  0.05200  0.50000  Biso   1.000  O
  C38      1.0000 0.28550  0.05340  0.50000  Biso   1.000  C
  O39      1.0000 0.08990  0.55200  0.00000  Biso   1.000  O
  C39      1.0000 0.21450  0.55340  0.00000  Biso   1.000  C
  O40      1.0000 0.58990  0.05200  0.50000  Biso   1.000  O
  C40      1.0000 0.71450  0.05340  0.50000  Biso   1.000  C
  O41      1.0000 0.44800  0.00000  0.91010  Biso   1.000  O
  C41      1.0000 0.44660  0.00000  0.78550  Biso   1.000  C
  O42      1.0000 0.94800  0.50000  0.41010  Biso   1.000  O
  C42      1.0000 0.94660  0.50000  0.28550  Biso   1.000  C
  O43      1.0000 0.44800  0.00000  0.08990  Biso   1.000  O
  C43      1.0000 0.44660  0.00000  0.21450  Biso   1.000  C
  O44      1.0000 0.94800  0.50000  0.58990  Biso   1.000  O
  C44      1.0000 0.94660  0.50000  0.71450  Biso   1.000  C
  O45      1.0000 0.55200  0.00000  0.08990  Biso   1.000  O
  C45      1.0000 0.55340  0.00000  0.21450  Biso   1.000  C
  O46      1.0000 0.05200  0.50000  0.58990  Biso   1.000  O
  C46      1.0000 0.05340  0.50000  0.71450  Biso   1.000  C
  O47      1.0000 0.55200  0.00000  0.91010  Biso   1.000  O
  C47      1.0000 0.55340  0.00000  0.78550  Biso   1.000  C
  O48      1.0000 0.05200  0.50000  0.41010  Biso   1.000  O
  C48      1.0000 0.05340  0.50000  0.28550  Biso   1.000  C
  C49      1.0000 0.11470  0.00000  0.50000  Biso   1.000  C
  C50      1.0000 0.18440  0.00000  0.50000  Biso   1.000  C
  C51      1.0000 0.61470  0.50000  0.00000  Biso   1.000  C
  C52      1.0000 0.68440  0.50000  0.00000  Biso   1.000  C
  C53      1.0000 0.88530  0.00000  0.50000  Biso   1.000  C
  C54      1.0000 0.81560  0.00000  0.50000  Biso   1.000  C
  C55      1.0000 0.38530  0.50000  0.00000  Biso   1.000  C
  C56      1.0000 0.31560  0.50000  0.00000  Biso   1.000  C
  C57      1.0000 0.50000  0.11470  0.00000  Biso   1.000  C
  C58      1.0000 0.50000  0.18440  0.00000  Biso   1.000  C
  C59      1.0000 0.00000  0.61470  0.50000  Biso   1.000  C
  C60      1.0000 0.00000  0.68440  0.50000  Biso   1.000  C
  C61      1.0000 0.50000  0.88530  0.00000  Biso   1.000  C
  C62      1.0000 0.50000  0.81560  0.00000  Biso   1.000  C
  C63      1.0000 0.00000  0.38530  0.50000  Biso   1.000  C
  C64      1.0000 0.00000  0.31560  0.50000  Biso   1.000  C
  C65      1.0000 0.00000  0.50000  0.11470  Biso   1.000  C
  C66      1.0000 0.00000  0.50000  0.18440  Biso   1.000  C
  C67      1.0000 0.50000  0.00000  0.61470  Biso   1.000  C
  C68      1.0000 0.50000  0.00000  0.68440  Biso   1.000  C
  C69      1.0000 0.00000  0.50000  0.88530  Biso   1.000  C
  C70      1.0000 0.00000  0.50000  0.81560  Biso   1.000  C
  C71      1.0000 0.50000  0.00000  0.38530  Biso   1.000  C
  C72      1.0000 0.50000  0.00000  0.31560  Biso   1.000  C
  C73      1.0000 0.00000  0.11470  0.50000  Biso   1.000  C
  C74      1.0000 0.00000  0.18440  0.50000  Biso   1.000  C
  C75      1.0000 0.50000  0.61470  0.00000  Biso   1.000  C
  C76      1.0000 0.50000  0.68440  0.00000  Biso   1.000  C
  C77      1.0000 0.00000  0.88530  0.50000  Biso   1.000  C
  C78      1.0000 0.00000  0.81560  0.50000  Biso   1.000  C
  C79      1.0000 0.50000  0.38530  0.00000  Biso   1.000  C
  C80      1.0000 0.50000  0.31560  0.00000  Biso   1.000  C
  C81      1.0000 0.11470  0.50000  0.00000  Biso   1.000  C
  C82      1.0000 0.18440  0.50000  0.00000  Biso   1.000  C
  C83      1.0000 0.61470  0.00000  0.50000  Biso   1.000  C
  C84      1.0000 0.68440  0.00000  0.50000  Biso   1.000  C
  C85      1.0000 0.88530  0.50000  0.00000  Biso   1.000  C
  C86      1.0000 0.81560  0.50000  0.00000  Biso   1.000  C
  C87      1.0000 0.38530  0.00000  0.50000  Biso   1.000  C
  C88      1.0000 0.31560  0.00000  0.50000  Biso   1.000  C
  C89      1.0000 0.50000  0.00000  0.88530  Biso   1.000  C
  C90      1.0000 0.50000  0.00000  0.81560  Biso   1.000  C
  C91      1.0000 0.00000  0.50000  0.38530  Biso   1.000  C
  C92      1.0000 0.00000  0.50000  0.31560  Biso   1.000  C
  C93      1.0000 0.50000  0.00000  0.11470  Biso   1.000  C
  C94      1.0000 0.50000  0.00000  0.18440  Biso   1.000  C
  C95      1.0000 0.00000  0.50000  0.61470  Biso   1.000  C
  C96      1.0000 0.00000  0.50000  0.68440  Biso   1.000  C
  C97      1.0000 0.21620  0.05110  0.50000  Biso   1.000  C
  Br1      1.0000 0.17700  0.13090  0.50000  Biso   1.000  Br
  C98      1.0000 0.71620  0.55110  0.00000  Biso   1.000  C
  Br2      1.0000 0.67700  0.63090  0.00000  Biso   1.000  Br
  C99      1.0000 0.78380  0.94890  0.50000  Biso   1.000  C
  Br3      1.0000 0.82300  0.86910  0.50000  Biso   1.000  Br
  C100     1.0000 0.28380  0.44890  0.00000  Biso   1.000  C
  Br4      1.0000 0.32300  0.36910  0.00000  Biso   1.000  Br
  C101     1.0000 0.78380  0.05110  0.50000  Biso   1.000  C
  Br5      1.0000 0.82300  0.13090  0.50000  Biso   1.000  Br
  C102     1.0000 0.28380  0.55110  0.00000  Biso   1.000  C
  Br6      1.0000 0.32300  0.63090  0.00000  Biso   1.000  Br
  C103     1.0000 0.21620  0.94890  0.50000  Biso   1.000  C
  Br7      1.0000 0.17700  0.86910  0.50000  Biso   1.000  Br
  C104     1.0000 0.71620  0.44890  0.00000  Biso   1.000  C
  Br8      1.0000 0.67700  0.36910  0.00000  Biso   1.000  Br
  C105     1.0000 0.50000  0.21620  0.05110  Biso   1.000  C
  Br9      1.0000 0.50000  0.17700  0.13090  Biso   1.000  Br
  C106     1.0000 0.00000  0.71620  0.55110  Biso   1.000  C
  Br10     1.0000 0.00000  0.67700  0.63090  Biso   1.000  Br
  C107     1.0000 0.50000  0.78380  0.94890  Biso   1.000  C
  Br11     1.0000 0.50000  0.82300  0.86910  Biso   1.000  Br
  C108     1.0000 0.00000  0.28380  0.44890  Biso   1.000  C
  Br12     1.0000 0.00000  0.32300  0.36910  Biso   1.000  Br
  C109     1.0000 0.50000  0.78380  0.05110  Biso   1.000  C
  Br13     1.0000 0.50000  0.82300  0.13090  Biso   1.000  Br
  C110     1.0000 0.00000  0.28380  0.55110  Biso   1.000  C
  Br14     1.0000 0.00000  0.32300  0.63090  Biso   1.000  Br
  C111     1.0000 0.50000  0.21620  0.94890  Biso   1.000  C
  Br15     1.0000 0.50000  0.17700  0.86910  Biso   1.000  Br
  C112     1.0000 0.00000  0.71620  0.44890  Biso   1.000  C
  Br16     1.0000 0.00000  0.67700  0.36910  Biso   1.000  Br
  C113     1.0000 0.05110  0.50000  0.21620  Biso   1.000  C
  Br17     1.0000 0.13090  0.50000  0.17700  Biso   1.000  Br
  C114     1.0000 0.55110  0.00000  0.71620  Biso   1.000  C
  Br18     1.0000 0.63090  0.00000  0.67700  Biso   1.000  Br
  C115     1.0000 0.94890  0.50000  0.78380  Biso   1.000  C
  Br19     1.0000 0.86910  0.50000  0.82300  Biso   1.000  Br
  C116     1.0000 0.44890  0.00000  0.28380  Biso   1.000  C
  Br20     1.0000 0.36910  0.00000  0.32300  Biso   1.000  Br
  C117     1.0000 0.05110  0.50000  0.78380  Biso   1.000  C
  Br21     1.0000 0.13090  0.50000  0.82300  Biso   1.000  Br
  C118     1.0000 0.55110  0.00000  0.28380  Biso   1.000  C
  Br22     1.0000 0.63090  0.00000  0.32300  Biso   1.000  Br
  C119     1.0000 0.94890  0.50000  0.21620  Biso   1.000  C
  Br23     1.0000 0.86910  0.50000  0.17700  Biso   1.000  Br
  C120     1.0000 0.44890  0.00000  0.71620  Biso   1.000  C
  Br24     1.0000 0.36910  0.00000  0.67700  Biso   1.000  Br
  C121     1.0000 0.05110  0.21620  0.50000  Biso   1.000  C
  Br25     1.0000 0.13090  0.17700  0.50000  Biso   1.000  Br
  C122     1.0000 0.55110  0.71620  0.00000  Biso   1.000  C
  Br26     1.0000 0.63090  0.67700  0.00000  Biso   1.000  Br
  C123     1.0000 0.94890  0.78380  0.50000  Biso   1.000  C
  Br27     1.0000 0.86910  0.82300  0.50000  Biso   1.000  Br
  C124     1.0000 0.44890  0.28380  0.00000  Biso   1.000  C
  Br28     1.0000 0.36910  0.32300  0.00000  Biso   1.000  Br
  C125     1.0000 0.05110  0.78380  0.50000  Biso   1.000  C
  Br29     1.0000 0.13090  0.82300  0.50000  Biso   1.000  Br
  C126     1.0000 0.55110  0.28380  0.00000  Biso   1.000  C
  Br30     1.0000 0.63090  0.32300  0.00000  Biso   1.000  Br
  C127     1.0000 0.94890  0.21620  0.50000  Biso   1.000  C
  Br31     1.0000 0.86910  0.17700  0.50000  Biso   1.000  Br
  C128     1.0000 0.44890  0.71620  0.00000  Biso   1.000  C
  Br32     1.0000 0.36910  0.67700  0.00000  Biso   1.000  Br
  C129     1.0000 0.21620  0.50000  0.94890  Biso   1.000  C
  Br33     1.0000 0.17700  0.50000  0.86910  Biso   1.000  Br
  C130     1.0000 0.71620  0.00000  0.44890  Biso   1.000  C
  Br34     1.0000 0.67700  0.00000  0.36910  Biso   1.000  Br
  C131     1.0000 0.78380  0.50000  0.05110  Biso   1.000  C
  Br35     1.0000 0.82300  0.50000  0.13090  Biso   1.000  Br
  C132     1.0000 0.28380  0.00000  0.55110  Biso   1.000  C
  Br36     1.0000 0.32300  0.00000  0.63090  Biso   1.000  Br
  C133     1.0000 0.78380  0.50000  0.94890  Biso   1.000  C
  Br37     1.0000 0.82300  0.50000  0.86910  Biso   1.000  Br
  C134     1.0000 0.28380  0.00000  0.44890  Biso   1.000  C
  Br38     1.0000 0.32300  0.00000  0.36910  Biso   1.000  Br
  C135     1.0000 0.21620  0.50000  0.05110  Biso   1.000  C
  Br39     1.0000 0.17700  0.50000  0.13090  Biso   1.000  Br
  C136     1.0000 0.71620  0.00000  0.55110  Biso   1.000  C
  Br40     1.0000 0.67700  0.00000  0.63090  Biso   1.000  Br
  C137     1.0000 0.50000  0.05110  0.78380  Biso   1.000  C
  Br41     1.0000 0.50000  0.13090  0.82300  Biso   1.000  Br
  C138     1.0000 0.00000  0.55110  0.28380  Biso   1.000  C
  Br42     1.0000 0.00000  0.63090  0.32300  Biso   1.000  Br
  C139     1.0000 0.50000  0.94890  0.21620  Biso   1.000  C
  Br43     1.0000 0.50000  0.86910  0.17700  Biso   1.000  Br
  C140     1.0000 0.00000  0.44890  0.71620  Biso   1.000  C
  Br44     1.0000 0.00000  0.36910  0.67700  Biso   1.000  Br
  C141     1.0000 0.50000  0.05110  0.21620  Biso   1.000  C
  Br45     1.0000 0.50000  0.13090  0.17700  Biso   1.000  Br
  C142     1.0000 0.00000  0.55110  0.71620  Biso   1.000  C
  Br46     1.0000 0.00000  0.63090  0.67700  Biso   1.000  Br
  C143     1.0000 0.50000  0.94890  0.78380  Biso   1.000  C
  Br47     1.0000 0.50000  0.86910  0.82300  Biso   1.000  Br
  C144     1.0000 0.00000  0.44890  0.28380  Biso   1.000  C
  Br48     1.0000 0.00000  0.36910  0.32300  Biso   1.000  Br
