data_image0
_cell_length_a       14.538
_cell_length_b       14.538
_cell_length_c       17.515
_cell_angle_alpha    90
_cell_angle_beta     90
_cell_angle_gamma    120

_symmetry_space_group_name_H-M    "P 1"
_symmetry_int_tables_number       1

loop_
  _symmetry_equiv_pos_as_xyz
  'x, y, z'

loop_
  _atom_site_label
  _atom_site_occupancy
  _atom_site_fract_x
  _atom_site_fract_y
  _atom_site_fract_z
  _atom_site_thermal_displace_type
  _atom_site_B_iso_or_equiv
  _atom_site_type_symbol
  C1       1.0000 0.60280  0.02090  0.07830  Biso   1.000  C
  H1       1.0000 0.62210  0.09300  0.06730  Biso   1.000  H
  H2       1.0000 0.63680  0.01860  0.12470  Biso   1.000  H
  H3       1.0000 0.52720  0.97880  0.08420  Biso   1.000  H
  C2       1.0000 0.63710  0.97840  0.01515  Biso   1.000  C
  N1       1.0000 0.62400  0.88110  0.01027  Biso   1.000  N
  N2       1.0000 0.66330  0.87310  0.94340  Biso   1.000  N
  N3       1.0000 0.70070  0.96550  0.90700  Biso   1.000  N
  N4       1.0000 0.68440  0.03050  0.95132  Biso   1.000  N
  C3       1.0000 0.61540  0.15900  0.75020  Biso   1.000  C
  H4       1.0000 0.58830  0.14610  0.80150  Biso   1.000  H
  H5       1.0000 0.57080  0.09930  0.71870  Biso   1.000  H
  H6       1.0000 0.61610  0.22140  0.73060  Biso   1.000  H
  C4       1.0000 0.72540  0.17670  0.75005  Biso   1.000  C
  N5       1.0000 0.78660  0.19710  0.81145  Biso   1.000  N
  N6       1.0000 0.88520  0.23010  0.78788  Biso   1.000  N
  N7       1.0000 0.88510  0.23010  0.71192  Biso   1.000  N
  N8       1.0000 0.78630  0.19710  0.68854  Biso   1.000  N
  C5       1.0000 0.60270  0.02060  0.42130  Biso   1.000  C
  H7       1.0000 0.57120  0.96770  0.38210  Biso   1.000  H
  H8       1.0000 0.66300  0.08280  0.40090  Biso   1.000  H
  H9       1.0000 0.55150  0.03870  0.43960  Biso   1.000  H
  C6       1.0000 0.63720  0.97860  0.48475  Biso   1.000  C
  N9       1.0000 0.68450  0.03070  0.54872  Biso   1.000  N
  N10      1.0000 0.70040  0.96540  0.59314  Biso   1.000  N
  N11      1.0000 0.66300  0.87290  0.55660  Biso   1.000  N
  N12      1.0000 0.62390  0.88110  0.48963  Biso   1.000  N
  Zn1      1.0000 0.75232  0.18435  0.57680  Biso   1.000  Zn
  Zn2      1.0000 0.75236  0.18439  0.92317  Biso   1.000  Zn
  O1       1.0000 0.64860  0.22600  0.55760  Biso   1.000  O
  O2       1.0000 0.64840  0.22610  0.94270  Biso   1.000  O
  C7       1.0000 0.60910  0.11060  0.75030  Biso   1.000  C
  H10      1.0000 0.58290  0.10790  0.80100  Biso   1.000  H
  H11      1.0000 0.58910  0.04000  0.73370  Biso   1.000  H
  H12      1.0000 0.57940  0.14060  0.71620  Biso   1.000  H
  C8       1.0000 0.97910  0.58190  0.07830  Biso   1.000  C
  H13      1.0000 0.90700  0.52910  0.06730  Biso   1.000  H
  H14      1.0000 0.98140  0.61820  0.12470  Biso   1.000  H
  H15      1.0000 0.02120  0.54840  0.08420  Biso   1.000  H
  C9       1.0000 0.02160  0.65870  0.01515  Biso   1.000  C
  N13      1.0000 0.11890  0.74290  0.01027  Biso   1.000  N
  N14      1.0000 0.12690  0.79020  0.94340  Biso   1.000  N
  N15      1.0000 0.03450  0.73520  0.90700  Biso   1.000  N
  N16      1.0000 0.96950  0.65390  0.95132  Biso   1.000  N
  C10      1.0000 0.84100  0.45640  0.75020  Biso   1.000  C
  H16      1.0000 0.85390  0.44220  0.80150  Biso   1.000  H
  H17      1.0000 0.90070  0.47150  0.71870  Biso   1.000  H
  H18      1.0000 0.77860  0.39470  0.73060  Biso   1.000  H
  C11      1.0000 0.82330  0.54870  0.75005  Biso   1.000  C
  N17      1.0000 0.80290  0.58950  0.81145  Biso   1.000  N
  N18      1.0000 0.76990  0.65510  0.78788  Biso   1.000  N
  N19      1.0000 0.76990  0.65500  0.71192  Biso   1.000  N
  N20      1.0000 0.80290  0.58920  0.68854  Biso   1.000  N
  C12      1.0000 0.97940  0.58210  0.42130  Biso   1.000  C
  H19      1.0000 0.03230  0.60350  0.38210  Biso   1.000  H
  H20      1.0000 0.91720  0.58020  0.40090  Biso   1.000  H
  H21      1.0000 0.96130  0.51280  0.43960  Biso   1.000  H
  C13      1.0000 0.02140  0.65860  0.48475  Biso   1.000  C
  N21      1.0000 0.96930  0.65380  0.54872  Biso   1.000  N
  N22      1.0000 0.03460  0.73500  0.59314  Biso   1.000  N
  N23      1.0000 0.12710  0.79010  0.55660  Biso   1.000  N
  N24      1.0000 0.11890  0.74280  0.48963  Biso   1.000  N
  Zn3      1.0000 0.81565  0.56797  0.57680  Biso   1.000  Zn
  Zn4      1.0000 0.81561  0.56797  0.92317  Biso   1.000  Zn
  O3       1.0000 0.77400  0.42260  0.55760  Biso   1.000  O
  O4       1.0000 0.77390  0.42230  0.94270  Biso   1.000  O
  C14      1.0000 0.88940  0.49850  0.75030  Biso   1.000  C
  H22      1.0000 0.89210  0.47500  0.80100  Biso   1.000  H
  H23      1.0000 0.96000  0.54910  0.73370  Biso   1.000  H
  H24      1.0000 0.85940  0.43880  0.71620  Biso   1.000  H
  C15      1.0000 0.41810  0.39720  0.07830  Biso   1.000  C
  H25      1.0000 0.47090  0.37790  0.06730  Biso   1.000  H
  H26      1.0000 0.38180  0.36320  0.12470  Biso   1.000  H
  H27      1.0000 0.45160  0.47280  0.08420  Biso   1.000  H
  C16      1.0000 0.34130  0.36290  0.01515  Biso   1.000  C
  N25      1.0000 0.25710  0.37600  0.01027  Biso   1.000  N
  N26      1.0000 0.20980  0.33670  0.94340  Biso   1.000  N
  N27      1.0000 0.26480  0.29930  0.90700  Biso   1.000  N
  N28      1.0000 0.34610  0.31560  0.95132  Biso   1.000  N
  C17      1.0000 0.54360  0.38460  0.75020  Biso   1.000  C
  H28      1.0000 0.55780  0.41170  0.80150  Biso   1.000  H
  H29      1.0000 0.52850  0.42920  0.71870  Biso   1.000  H
  H30      1.0000 0.60530  0.38390  0.73060  Biso   1.000  H
  C18      1.0000 0.45130  0.27460  0.75005  Biso   1.000  C
  N29      1.0000 0.41050  0.21340  0.81145  Biso   1.000  N
  N30      1.0000 0.34490  0.11480  0.78788  Biso   1.000  N
  N31      1.0000 0.34500  0.11490  0.71192  Biso   1.000  N
  N32      1.0000 0.41080  0.21370  0.68854  Biso   1.000  N
  C19      1.0000 0.41790  0.39730  0.42130  Biso   1.000  C
  H31      1.0000 0.39650  0.42880  0.38210  Biso   1.000  H
  H32      1.0000 0.41980  0.33700  0.40090  Biso   1.000  H
  H33      1.0000 0.48720  0.44850  0.43960  Biso   1.000  H
  C20      1.0000 0.34140  0.36280  0.48475  Biso   1.000  C
  N33      1.0000 0.34620  0.31550  0.54872  Biso   1.000  N
  N34      1.0000 0.26500  0.29960  0.59314  Biso   1.000  N
  N35      1.0000 0.20990  0.33700  0.55660  Biso   1.000  N
  N36      1.0000 0.25720  0.37610  0.48963  Biso   1.000  N
  Zn5      1.0000 0.43203  0.24768  0.57680  Biso   1.000  Zn
  Zn6      1.0000 0.43203  0.24764  0.92317  Biso   1.000  Zn
  O5       1.0000 0.57740  0.35140  0.55760  Biso   1.000  O
  O6       1.0000 0.57770  0.35160  0.94270  Biso   1.000  O
  C21      1.0000 0.50150  0.39090  0.75030  Biso   1.000  C
  H34      1.0000 0.52500  0.41710  0.80100  Biso   1.000  H
  H35      1.0000 0.45090  0.41090  0.73370  Biso   1.000  H
  H36      1.0000 0.56120  0.42060  0.71620  Biso   1.000  H
  C22      1.0000 0.39720  0.97910  0.92170  Biso   1.000  C
  H37      1.0000 0.37790  0.90700  0.93270  Biso   1.000  H
  H38      1.0000 0.36320  0.98140  0.87530  Biso   1.000  H
  H39      1.0000 0.47280  0.02120  0.91580  Biso   1.000  H
  C23      1.0000 0.36290  0.02160  0.98485  Biso   1.000  C
  N37      1.0000 0.37600  0.11890  0.98973  Biso   1.000  N
  N38      1.0000 0.33670  0.12690  0.05660  Biso   1.000  N
  N39      1.0000 0.29930  0.03450  0.09300  Biso   1.000  N
  N40      1.0000 0.31560  0.96950  0.04868  Biso   1.000  N
  C24      1.0000 0.38460  0.84100  0.24980  Biso   1.000  C
  H40      1.0000 0.41170  0.85390  0.19850  Biso   1.000  H
  H41      1.0000 0.42920  0.90070  0.28130  Biso   1.000  H
  H42      1.0000 0.38390  0.77860  0.26940  Biso   1.000  H
  C25      1.0000 0.27460  0.82330  0.24995  Biso   1.000  C
  N41      1.0000 0.21340  0.80290  0.18855  Biso   1.000  N
  N42      1.0000 0.11480  0.76990  0.21212  Biso   1.000  N
  N43      1.0000 0.11490  0.76990  0.28808  Biso   1.000  N
  N44      1.0000 0.21370  0.80290  0.31146  Biso   1.000  N
  C26      1.0000 0.39730  0.97940  0.57870  Biso   1.000  C
  H43      1.0000 0.42880  0.03230  0.61790  Biso   1.000  H
  H44      1.0000 0.33700  0.91720  0.59910  Biso   1.000  H
  H45      1.0000 0.44850  0.96130  0.56040  Biso   1.000  H
  C27      1.0000 0.36280  0.02140  0.51525  Biso   1.000  C
  N45      1.0000 0.31550  0.96930  0.45128  Biso   1.000  N
  N46      1.0000 0.29960  0.03460  0.40686  Biso   1.000  N
  N47      1.0000 0.33700  0.12710  0.44340  Biso   1.000  N
  N48      1.0000 0.37610  0.11890  0.51037  Biso   1.000  N
  Zn7      1.0000 0.24768  0.81565  0.42320  Biso   1.000  Zn
  Zn8      1.0000 0.24764  0.81561  0.07683  Biso   1.000  Zn
  O7       1.0000 0.35140  0.77400  0.44240  Biso   1.000  O
  O8       1.0000 0.35160  0.77390  0.05730  Biso   1.000  O
  C28      1.0000 0.39090  0.88940  0.24970  Biso   1.000  C
  H46      1.0000 0.41710  0.89210  0.19900  Biso   1.000  H
  H47      1.0000 0.41090  0.96000  0.26630  Biso   1.000  H
  H48      1.0000 0.42060  0.85940  0.28380  Biso   1.000  H
  C29      1.0000 0.02090  0.41810  0.92170  Biso   1.000  C
  H49      1.0000 0.09300  0.47090  0.93270  Biso   1.000  H
  H50      1.0000 0.01860  0.38180  0.87530  Biso   1.000  H
  H51      1.0000 0.97880  0.45160  0.91580  Biso   1.000  H
  C30      1.0000 0.97840  0.34130  0.98485  Biso   1.000  C
  N49      1.0000 0.88110  0.25710  0.98973  Biso   1.000  N
  N50      1.0000 0.87310  0.20980  0.05660  Biso   1.000  N
  N51      1.0000 0.96550  0.26480  0.09300  Biso   1.000  N
  N52      1.0000 0.03050  0.34610  0.04868  Biso   1.000  N
  C31      1.0000 0.15900  0.54360  0.24980  Biso   1.000  C
  H52      1.0000 0.14610  0.55780  0.19850  Biso   1.000  H
  H53      1.0000 0.09930  0.52850  0.28130  Biso   1.000  H
  H54      1.0000 0.22140  0.60530  0.26940  Biso   1.000  H
  C32      1.0000 0.17670  0.45130  0.24995  Biso   1.000  C
  N53      1.0000 0.19710  0.41050  0.18855  Biso   1.000  N
  N54      1.0000 0.23010  0.34490  0.21212  Biso   1.000  N
  N55      1.0000 0.23010  0.34500  0.28808  Biso   1.000  N
  N56      1.0000 0.19710  0.41080  0.31146  Biso   1.000  N
  C33      1.0000 0.02060  0.41790  0.57870  Biso   1.000  C
  H55      1.0000 0.96770  0.39650  0.61790  Biso   1.000  H
  H56      1.0000 0.08280  0.41980  0.59910  Biso   1.000  H
  H57      1.0000 0.03870  0.48720  0.56040  Biso   1.000  H
  C34      1.0000 0.97860  0.34140  0.51525  Biso   1.000  C
  N57      1.0000 0.03070  0.34620  0.45128  Biso   1.000  N
  N58      1.0000 0.96540  0.26500  0.40686  Biso   1.000  N
  N59      1.0000 0.87290  0.20990  0.44340  Biso   1.000  N
  N60      1.0000 0.88110  0.25720  0.51037  Biso   1.000  N
  Zn9      1.0000 0.18435  0.43203  0.42320  Biso   1.000  Zn
  Zn10     1.0000 0.18439  0.43203  0.07683  Biso   1.000  Zn
  O9       1.0000 0.22600  0.57740  0.44240  Biso   1.000  O
  O10      1.0000 0.22610  0.57770  0.05730  Biso   1.000  O
  C35      1.0000 0.11060  0.50150  0.24970  Biso   1.000  C
  H58      1.0000 0.10790  0.52500  0.19900  Biso   1.000  H
  H59      1.0000 0.04000  0.45090  0.26630  Biso   1.000  H
  H60      1.0000 0.14060  0.56120  0.28380  Biso   1.000  H
  C36      1.0000 0.58190  0.60280  0.92170  Biso   1.000  C
  H61      1.0000 0.52910  0.62210  0.93270  Biso   1.000  H
  H62      1.0000 0.61820  0.63680  0.87530  Biso   1.000  H
  H63      1.0000 0.54840  0.52720  0.91580  Biso   1.000  H
  C37      1.0000 0.65870  0.63710  0.98485  Biso   1.000  C
  N61      1.0000 0.74290  0.62400  0.98973  Biso   1.000  N
  N62      1.0000 0.79020  0.66330  0.05660  Biso   1.000  N
  N63      1.0000 0.73520  0.70070  0.09300  Biso   1.000  N
  N64      1.0000 0.65390  0.68440  0.04868  Biso   1.000  N
  C38      1.0000 0.45640  0.61540  0.24980  Biso   1.000  C
  H64      1.0000 0.44220  0.58830  0.19850  Biso   1.000  H
  H65      1.0000 0.47150  0.57080  0.28130  Biso   1.000  H
  H66      1.0000 0.39470  0.61610  0.26940  Biso   1.000  H
  C39      1.0000 0.54870  0.72540  0.24995  Biso   1.000  C
  N65      1.0000 0.58950  0.78660  0.18855  Biso   1.000  N
  N66      1.0000 0.65510  0.88520  0.21212  Biso   1.000  N
  N67      1.0000 0.65500  0.88510  0.28808  Biso   1.000  N
  N68      1.0000 0.58920  0.78630  0.31146  Biso   1.000  N
  C40      1.0000 0.58210  0.60270  0.57870  Biso   1.000  C
  H67      1.0000 0.60350  0.57120  0.61790  Biso   1.000  H
  H68      1.0000 0.58020  0.66300  0.59910  Biso   1.000  H
  H69      1.0000 0.51280  0.55150  0.56040  Biso   1.000  H
  C41      1.0000 0.65860  0.63720  0.51525  Biso   1.000  C
  N69      1.0000 0.65380  0.68450  0.45128  Biso   1.000  N
  N70      1.0000 0.73500  0.70040  0.40686  Biso   1.000  N
  N71      1.0000 0.79010  0.66300  0.44340  Biso   1.000  N
  N72      1.0000 0.74280  0.62390  0.51037  Biso   1.000  N
  Zn11     1.0000 0.56797  0.75232  0.42320  Biso   1.000  Zn
  Zn12     1.0000 0.56797  0.75236  0.07683  Biso   1.000  Zn
  O11      1.0000 0.42260  0.64860  0.44240  Biso   1.000  O
  O12      1.0000 0.42230  0.64840  0.05730  Biso   1.000  O
  C42      1.0000 0.49850  0.60910  0.24970  Biso   1.000  C
  H70      1.0000 0.47500  0.58290  0.19900  Biso   1.000  H
  H71      1.0000 0.54910  0.58910  0.26630  Biso   1.000  H
  H72      1.0000 0.43880  0.57940  0.28380  Biso   1.000  H
  P1       1.0000 0.66667  0.33333  0.96772  Biso   1.000  P
  P2       1.0000 0.66667  0.33333  0.53224  Biso   1.000  P
  P3       1.0000 0.33333  0.66667  0.03228  Biso   1.000  P
  P4       1.0000 0.33333  0.66667  0.46776  Biso   1.000  P
