data_image0
_cell_length_a       18.5877
_cell_length_b       18.5877
_cell_length_c       6.874
_cell_angle_alpha    90
_cell_angle_beta     90
_cell_angle_gamma    120

_symmetry_space_group_name_H-M    "P 1"
_symmetry_int_tables_number       1

loop_
  _symmetry_equiv_pos_as_xyz
  'x, y, z'

loop_
  _atom_site_label
  _atom_site_occupancy
  _atom_site_fract_x
  _atom_site_fract_y
  _atom_site_fract_z
  _atom_site_thermal_displace_type
  _atom_site_B_iso_or_equiv
  _atom_site_type_symbol
  O1       1.0000 0.58860  0.55850  0.75140  Biso   1.000  O
  O2       1.0000 0.62860  0.51860  0.01770  Biso   1.000  O
  O3       1.0000 0.79620  0.71230  0.24330  Biso   1.000  O
  C1       1.0000 0.64110  0.55020  0.84980  Biso   1.000  C
  C2       1.0000 0.72340  0.57670  0.75810  Biso   1.000  C
  C3       1.0000 0.74570  0.61990  0.58420  Biso   1.000  C
  C4       1.0000 0.81220  0.75900  0.07600  Biso   1.000  C
  H1       1.0000 0.70790  0.63340  0.52320  Biso   1.000  H
  H2       1.0000 0.46030  0.59620  0.58250  Biso   1.000  H
  H3       1.0000 0.76670  0.76780  0.04400  Biso   1.000  H
  H4       1.0000 0.86100  0.81280  0.09020  Biso   1.000  H
  H5       1.0000 0.82100  0.73220  0.96650  Biso   1.000  H
  O4       1.0000 0.44150  0.03010  0.75140  Biso   1.000  O
  O5       1.0000 0.48140  0.11000  0.01770  Biso   1.000  O
  O6       1.0000 0.28770  0.08390  0.24330  Biso   1.000  O
  C5       1.0000 0.44980  0.09090  0.84980  Biso   1.000  C
  C6       1.0000 0.42330  0.14670  0.75810  Biso   1.000  C
  C7       1.0000 0.38010  0.12580  0.58420  Biso   1.000  C
  C8       1.0000 0.24100  0.05320  0.07600  Biso   1.000  C
  H6       1.0000 0.36660  0.07450  0.52320  Biso   1.000  H
  H7       1.0000 0.40380  0.86410  0.58250  Biso   1.000  H
  H8       1.0000 0.23220  0.99890  0.04400  Biso   1.000  H
  H9       1.0000 0.18720  0.04820  0.09020  Biso   1.000  H
  H10      1.0000 0.26780  0.08880  0.96650  Biso   1.000  H
  O7       1.0000 0.96990  0.41140  0.75140  Biso   1.000  O
  O8       1.0000 0.89000  0.37140  0.01770  Biso   1.000  O
  O9       1.0000 0.91610  0.20380  0.24330  Biso   1.000  O
  C9       1.0000 0.90910  0.35890  0.84980  Biso   1.000  C
  C10      1.0000 0.85330  0.27660  0.75810  Biso   1.000  C
  C11      1.0000 0.87420  0.25430  0.58420  Biso   1.000  C
  C12      1.0000 0.94680  0.18780  0.07600  Biso   1.000  C
  H11      1.0000 0.92550  0.29210  0.52320  Biso   1.000  H
  H12      1.0000 0.13590  0.53970  0.58250  Biso   1.000  H
  H13      1.0000 0.00110  0.23330  0.04400  Biso   1.000  H
  H14      1.0000 0.95180  0.13900  0.09020  Biso   1.000  H
  H15      1.0000 0.91120  0.17900  0.96650  Biso   1.000  H
  O10      1.0000 0.55850  0.58860  0.24860  Biso   1.000  O
  O11      1.0000 0.51860  0.62860  0.98230  Biso   1.000  O
  O12      1.0000 0.71230  0.79620  0.75670  Biso   1.000  O
  C13      1.0000 0.55020  0.64110  0.15020  Biso   1.000  C
  C14      1.0000 0.57670  0.72340  0.24190  Biso   1.000  C
  C15      1.0000 0.61990  0.74570  0.41580  Biso   1.000  C
  C16      1.0000 0.75900  0.81220  0.92400  Biso   1.000  C
  H16      1.0000 0.63340  0.70790  0.47680  Biso   1.000  H
  H17      1.0000 0.59620  0.46030  0.41750  Biso   1.000  H
  H18      1.0000 0.76780  0.76670  0.95600  Biso   1.000  H
  H19      1.0000 0.81280  0.86100  0.90980  Biso   1.000  H
  H20      1.0000 0.73220  0.82100  0.03350  Biso   1.000  H
  O13      1.0000 0.03010  0.44150  0.24860  Biso   1.000  O
  O14      1.0000 0.11000  0.48140  0.98230  Biso   1.000  O
  O15      1.0000 0.08390  0.28770  0.75670  Biso   1.000  O
  C17      1.0000 0.09090  0.44980  0.15020  Biso   1.000  C
  C18      1.0000 0.14670  0.42330  0.24190  Biso   1.000  C
  C19      1.0000 0.12580  0.38010  0.41580  Biso   1.000  C
  C20      1.0000 0.05320  0.24100  0.92400  Biso   1.000  C
  H21      1.0000 0.07450  0.36660  0.47680  Biso   1.000  H
  H22      1.0000 0.86410  0.40380  0.41750  Biso   1.000  H
  H23      1.0000 0.99890  0.23220  0.95600  Biso   1.000  H
  H24      1.0000 0.04820  0.18720  0.90980  Biso   1.000  H
  H25      1.0000 0.08880  0.26780  0.03350  Biso   1.000  H
  O16      1.0000 0.41140  0.96990  0.24860  Biso   1.000  O
  O17      1.0000 0.37140  0.89000  0.98230  Biso   1.000  O
  O18      1.0000 0.20380  0.91610  0.75670  Biso   1.000  O
  C21      1.0000 0.35890  0.90910  0.15020  Biso   1.000  C
  C22      1.0000 0.27660  0.85330  0.24190  Biso   1.000  C
  C23      1.0000 0.25430  0.87420  0.41580  Biso   1.000  C
  C24      1.0000 0.18780  0.94680  0.92400  Biso   1.000  C
  H26      1.0000 0.29210  0.92550  0.47680  Biso   1.000  H
  H27      1.0000 0.53970  0.13590  0.41750  Biso   1.000  H
  H28      1.0000 0.23330  0.00110  0.95600  Biso   1.000  H
  H29      1.0000 0.13900  0.95180  0.90980  Biso   1.000  H
  H30      1.0000 0.17900  0.91120  0.03350  Biso   1.000  H
  O19      1.0000 0.41140  0.44150  0.24860  Biso   1.000  O
  O20      1.0000 0.37140  0.48140  0.98230  Biso   1.000  O
  O21      1.0000 0.20380  0.28770  0.75670  Biso   1.000  O
  C25      1.0000 0.35890  0.44980  0.15020  Biso   1.000  C
  C26      1.0000 0.27660  0.42330  0.24190  Biso   1.000  C
  C27      1.0000 0.25430  0.38010  0.41580  Biso   1.000  C
  C28      1.0000 0.18780  0.24100  0.92400  Biso   1.000  C
  H31      1.0000 0.29210  0.36660  0.47680  Biso   1.000  H
  H32      1.0000 0.53970  0.40380  0.41750  Biso   1.000  H
  H33      1.0000 0.23330  0.23220  0.95600  Biso   1.000  H
  H34      1.0000 0.13900  0.18720  0.90980  Biso   1.000  H
  H35      1.0000 0.17900  0.26780  0.03350  Biso   1.000  H
  O22      1.0000 0.55850  0.96990  0.24860  Biso   1.000  O
  O23      1.0000 0.51860  0.89000  0.98230  Biso   1.000  O
  O24      1.0000 0.71230  0.91610  0.75670  Biso   1.000  O
  C29      1.0000 0.55020  0.90910  0.15020  Biso   1.000  C
  C30      1.0000 0.57670  0.85330  0.24190  Biso   1.000  C
  C31      1.0000 0.61990  0.87420  0.41580  Biso   1.000  C
  C32      1.0000 0.75900  0.94680  0.92400  Biso   1.000  C
  H36      1.0000 0.63340  0.92550  0.47680  Biso   1.000  H
  H37      1.0000 0.59620  0.13590  0.41750  Biso   1.000  H
  H38      1.0000 0.76780  0.00110  0.95600  Biso   1.000  H
  H39      1.0000 0.81280  0.95180  0.90980  Biso   1.000  H
  H40      1.0000 0.73220  0.91120  0.03350  Biso   1.000  H
  O25      1.0000 0.03010  0.58860  0.24860  Biso   1.000  O
  O26      1.0000 0.11000  0.62860  0.98230  Biso   1.000  O
  O27      1.0000 0.08390  0.79620  0.75670  Biso   1.000  O
  C33      1.0000 0.09090  0.64110  0.15020  Biso   1.000  C
  C34      1.0000 0.14670  0.72340  0.24190  Biso   1.000  C
  C35      1.0000 0.12580  0.74570  0.41580  Biso   1.000  C
  C36      1.0000 0.05320  0.81220  0.92400  Biso   1.000  C
  H41      1.0000 0.07450  0.70790  0.47680  Biso   1.000  H
  H42      1.0000 0.86410  0.46030  0.41750  Biso   1.000  H
  H43      1.0000 0.99890  0.76670  0.95600  Biso   1.000  H
  H44      1.0000 0.04820  0.86100  0.90980  Biso   1.000  H
  H45      1.0000 0.08880  0.82100  0.03350  Biso   1.000  H
  O28      1.0000 0.44150  0.41140  0.75140  Biso   1.000  O
  O29      1.0000 0.48140  0.37140  0.01770  Biso   1.000  O
  O30      1.0000 0.28770  0.20380  0.24330  Biso   1.000  O
  C37      1.0000 0.44980  0.35890  0.84980  Biso   1.000  C
  C38      1.0000 0.42330  0.27660  0.75810  Biso   1.000  C
  C39      1.0000 0.38010  0.25430  0.58420  Biso   1.000  C
  C40      1.0000 0.24100  0.18780  0.07600  Biso   1.000  C
  H46      1.0000 0.36660  0.29210  0.52320  Biso   1.000  H
  H47      1.0000 0.40380  0.53970  0.58250  Biso   1.000  H
  H48      1.0000 0.23220  0.23330  0.04400  Biso   1.000  H
  H49      1.0000 0.18720  0.13900  0.09020  Biso   1.000  H
  H50      1.0000 0.26780  0.17900  0.96650  Biso   1.000  H
  O31      1.0000 0.96990  0.55850  0.75140  Biso   1.000  O
  O32      1.0000 0.89000  0.51860  0.01770  Biso   1.000  O
  O33      1.0000 0.91610  0.71230  0.24330  Biso   1.000  O
  C41      1.0000 0.90910  0.55020  0.84980  Biso   1.000  C
  C42      1.0000 0.85330  0.57670  0.75810  Biso   1.000  C
  C43      1.0000 0.87420  0.61990  0.58420  Biso   1.000  C
  C44      1.0000 0.94680  0.75900  0.07600  Biso   1.000  C
  H51      1.0000 0.92550  0.63340  0.52320  Biso   1.000  H
  H52      1.0000 0.13590  0.59620  0.58250  Biso   1.000  H
  H53      1.0000 0.00110  0.76780  0.04400  Biso   1.000  H
  H54      1.0000 0.95180  0.81280  0.09020  Biso   1.000  H
  H55      1.0000 0.91120  0.73220  0.96650  Biso   1.000  H
  O34      1.0000 0.58860  0.03010  0.75140  Biso   1.000  O
  O35      1.0000 0.62860  0.11000  0.01770  Biso   1.000  O
  O36      1.0000 0.79620  0.08390  0.24330  Biso   1.000  O
  C45      1.0000 0.64110  0.09090  0.84980  Biso   1.000  C
  C46      1.0000 0.72340  0.14670  0.75810  Biso   1.000  C
  C47      1.0000 0.74570  0.12580  0.58420  Biso   1.000  C
  C48      1.0000 0.81220  0.05320  0.07600  Biso   1.000  C
  H56      1.0000 0.70790  0.07450  0.52320  Biso   1.000  H
  H57      1.0000 0.46030  0.86410  0.58250  Biso   1.000  H
  H58      1.0000 0.76670  0.99890  0.04400  Biso   1.000  H
  H59      1.0000 0.86100  0.04820  0.09020  Biso   1.000  H
  H60      1.0000 0.82100  0.08880  0.96650  Biso   1.000  H
  Cu1      1.0000 0.47648  0.52352  0.84513  Biso   1.000  Cu
  O37      1.0000 0.44170  0.55830  0.57830  Biso   1.000  O
  N1       1.0000 0.43410  0.56590  0.60600  Biso   1.000  N
  C49      1.0000 0.40520  0.59480  0.51300  Biso   1.000  C
  C50      1.0000 0.36370  0.63630  0.40100  Biso   1.000  C
  H61      1.0000 0.36800  0.63200  0.26900  Biso   1.000  H
  Cu2      1.0000 0.47648  0.95296  0.84513  Biso   1.000  Cu
  O38      1.0000 0.44170  0.88340  0.57830  Biso   1.000  O
  N2       1.0000 0.43410  0.86820  0.60600  Biso   1.000  N
  C51      1.0000 0.40520  0.81040  0.51300  Biso   1.000  C
  C52      1.0000 0.36370  0.72740  0.40100  Biso   1.000  C
  H62      1.0000 0.36800  0.73600  0.26900  Biso   1.000  H
  Cu3      1.0000 0.04704  0.52352  0.84513  Biso   1.000  Cu
  O39      1.0000 0.11660  0.55830  0.57830  Biso   1.000  O
  N3       1.0000 0.13180  0.56590  0.60600  Biso   1.000  N
  C53      1.0000 0.18960  0.59480  0.51300  Biso   1.000  C
  C54      1.0000 0.27260  0.63630  0.40100  Biso   1.000  C
  H63      1.0000 0.26400  0.63200  0.26900  Biso   1.000  H
  Cu4      1.0000 0.52352  0.47648  0.15487  Biso   1.000  Cu
  O40      1.0000 0.55830  0.44170  0.42170  Biso   1.000  O
  N4       1.0000 0.56590  0.43410  0.39400  Biso   1.000  N
  C55      1.0000 0.59480  0.40520  0.48700  Biso   1.000  C
  C56      1.0000 0.63630  0.36370  0.59900  Biso   1.000  C
  H64      1.0000 0.63200  0.36800  0.73100  Biso   1.000  H
  Cu5      1.0000 0.95296  0.47648  0.15487  Biso   1.000  Cu
  O41      1.0000 0.88340  0.44170  0.42170  Biso   1.000  O
  N5       1.0000 0.86820  0.43410  0.39400  Biso   1.000  N
  C57      1.0000 0.81040  0.40520  0.48700  Biso   1.000  C
  C58      1.0000 0.72740  0.36370  0.59900  Biso   1.000  C
  H65      1.0000 0.73600  0.36800  0.73100  Biso   1.000  H
  Cu6      1.0000 0.52352  0.04704  0.15487  Biso   1.000  Cu
  O42      1.0000 0.55830  0.11660  0.42170  Biso   1.000  O
  N6       1.0000 0.56590  0.13180  0.39400  Biso   1.000  N
  C59      1.0000 0.59480  0.18960  0.48700  Biso   1.000  C
  C60      1.0000 0.63630  0.27260  0.59900  Biso   1.000  C
  H66      1.0000 0.63200  0.26400  0.73100  Biso   1.000  H
  C61      1.0000 0.82135  0.64270  0.49870  Biso   1.000  C
  C62      1.0000 0.77865  0.55730  0.84820  Biso   1.000  C
  C63      1.0000 0.84650  0.69300  0.31320  Biso   1.000  C
  H67      1.0000 0.76565  0.53130  0.97010  Biso   1.000  H
  C64      1.0000 0.35730  0.17865  0.49870  Biso   1.000  C
  C65      1.0000 0.44270  0.22135  0.84820  Biso   1.000  C
  C66      1.0000 0.30700  0.15350  0.31320  Biso   1.000  C
  H68      1.0000 0.46870  0.23435  0.97010  Biso   1.000  H
  C67      1.0000 0.82135  0.17865  0.49870  Biso   1.000  C
  C68      1.0000 0.77865  0.22135  0.84820  Biso   1.000  C
  C69      1.0000 0.84650  0.15350  0.31320  Biso   1.000  C
  H69      1.0000 0.76565  0.23435  0.97010  Biso   1.000  H
  C70      1.0000 0.64270  0.82135  0.50130  Biso   1.000  C
  C71      1.0000 0.55730  0.77865  0.15180  Biso   1.000  C
  C72      1.0000 0.69300  0.84650  0.68680  Biso   1.000  C
  H70      1.0000 0.53130  0.76565  0.02990  Biso   1.000  H
  C73      1.0000 0.17865  0.35730  0.50130  Biso   1.000  C
  C74      1.0000 0.22135  0.44270  0.15180  Biso   1.000  C
  C75      1.0000 0.15350  0.30700  0.68680  Biso   1.000  C
  H71      1.0000 0.23435  0.46870  0.02990  Biso   1.000  H
  C76      1.0000 0.17865  0.82135  0.50130  Biso   1.000  C
  C77      1.0000 0.22135  0.77865  0.15180  Biso   1.000  C
  C78      1.0000 0.15350  0.84650  0.68680  Biso   1.000  C
  H72      1.0000 0.23435  0.76565  0.02990  Biso   1.000  H
  H73      1.0000 0.30455  0.60910  0.44350  Biso   1.000  H
  H74      1.0000 0.39090  0.69545  0.44350  Biso   1.000  H
  H75      1.0000 0.30455  0.69545  0.44350  Biso   1.000  H
  H76      1.0000 0.60910  0.30455  0.55650  Biso   1.000  H
  H77      1.0000 0.69545  0.39090  0.55650  Biso   1.000  H
  H78      1.0000 0.69545  0.30455  0.55650  Biso   1.000  H
