data_image0
_cell_length_a       26.846
_cell_length_b       27.178
_cell_length_c       9.766
_cell_angle_alpha    90
_cell_angle_beta     90
_cell_angle_gamma    90

_symmetry_space_group_name_H-M    "P 1"
_symmetry_int_tables_number       1

loop_
  _symmetry_equiv_pos_as_xyz
  'x, y, z'

loop_
  _atom_site_label
  _atom_site_occupancy
  _atom_site_fract_x
  _atom_site_fract_y
  _atom_site_fract_z
  _atom_site_thermal_displace_type
  _atom_site_B_iso_or_equiv
  _atom_site_type_symbol
  O1       1.0000 0.90100  0.31090  0.96990  Biso   1.000  O
  C1       1.0000 0.92830  0.33120  0.87600  Biso   1.000  C
  O2       1.0000 0.96140  0.31057  0.81580  Biso   1.000  O
  C2       1.0000 0.91540  0.38310  0.83540  Biso   1.000  C
  C3       1.0000 0.87720  0.40850  0.89850  Biso   1.000  C
  C4       1.0000 0.94400  0.40550  0.73700  Biso   1.000  C
  H1       1.0000 0.85820  0.39290  0.96800  Biso   1.000  H
  C5       1.0000 0.86710  0.45430  0.86300  Biso   1.000  C
  C6       1.0000 0.93530  0.45330  0.69660  Biso   1.000  C
  H2       1.0000 0.97040  0.38760  0.69570  Biso   1.000  H
  C7       1.0000 0.89750  0.47820  0.75630  Biso   1.000  C
  C8       1.0000 0.82420  0.47670  0.93990  Biso   1.000  C
  C9       1.0000 0.96750  0.47630  0.59470  Biso   1.000  C
  C10      1.0000 0.22320  0.29490  0.28220  Biso   1.000  C
  H3       1.0000 0.89050  0.51110  0.72940  Biso   1.000  H
  O3       1.0000 0.80640  0.51420  0.90710  Biso   1.000  O
  O4       1.0000 0.80530  0.45970  0.03700  Biso   1.000  O
  C11      1.0000 0.01550  0.49270  0.63430  Biso   1.000  C
  C12      1.0000 0.95240  0.48550  0.46000  Biso   1.000  C
  C13      1.0000 0.19750  0.33920  0.27870  Biso   1.000  C
  C14      1.0000 0.03270  0.48570  0.77430  Biso   1.000  C
  C15      1.0000 0.90460  0.46830  0.41160  Biso   1.000  C
  H4       1.0000 0.16220  0.34010  0.28250  Biso   1.000  H
  C16      1.0000 0.22470  0.38130  0.27000  Biso   1.000  C
  H5       1.0000 0.01140  0.47090  0.84010  Biso   1.000  H
  C17      1.0000 0.07940  0.50040  0.81090  Biso   1.000  C
  H6       1.0000 0.88310  0.45090  0.47180  Biso   1.000  H
  C18      1.0000 0.89060  0.47670  0.28260  Biso   1.000  C
  H7       1.0000 0.20770  0.41190  0.26310  Biso   1.000  H
  H8       1.0000 0.09110  0.49480  0.90130  Biso   1.000  H
  H9       1.0000 0.85830  0.46630  0.25450  Biso   1.000  H
  O5       1.0000 0.83200  0.53890  0.86210  Biso   1.000  O
  O6       1.0000 0.80780  0.48140  0.97930  Biso   1.000  O
  C19      1.0000 0.83530  0.49800  0.89800  Biso   1.000  C
  O7       1.0000 0.59900  0.18910  0.96990  Biso   1.000  O
  C20      1.0000 0.57170  0.16880  0.87600  Biso   1.000  C
  O8       1.0000 0.53860  0.18943  0.81580  Biso   1.000  O
  C21      1.0000 0.58460  0.11690  0.83540  Biso   1.000  C
  C22      1.0000 0.62280  0.09150  0.89850  Biso   1.000  C
  C23      1.0000 0.55600  0.09450  0.73700  Biso   1.000  C
  H10      1.0000 0.64180  0.10710  0.96800  Biso   1.000  H
  C24      1.0000 0.63290  0.04570  0.86300  Biso   1.000  C
  C25      1.0000 0.56470  0.04670  0.69660  Biso   1.000  C
  H11      1.0000 0.52960  0.11240  0.69570  Biso   1.000  H
  C26      1.0000 0.60250  0.02180  0.75630  Biso   1.000  C
  C27      1.0000 0.67580  0.02330  0.93990  Biso   1.000  C
  C28      1.0000 0.53250  0.02370  0.59470  Biso   1.000  C
  C29      1.0000 0.27680  0.20510  0.28220  Biso   1.000  C
  H12      1.0000 0.60950  0.98890  0.72940  Biso   1.000  H
  O9       1.0000 0.69360  0.98580  0.90710  Biso   1.000  O
  O10      1.0000 0.69470  0.04030  0.03700  Biso   1.000  O
  C30      1.0000 0.48450  0.00730  0.63430  Biso   1.000  C
  C31      1.0000 0.54760  0.01450  0.46000  Biso   1.000  C
  C32      1.0000 0.30250  0.16080  0.27870  Biso   1.000  C
  C33      1.0000 0.46730  0.01430  0.77430  Biso   1.000  C
  C34      1.0000 0.59540  0.03170  0.41160  Biso   1.000  C
  H13      1.0000 0.33780  0.15990  0.28250  Biso   1.000  H
  C35      1.0000 0.27530  0.11870  0.27000  Biso   1.000  C
  H14      1.0000 0.48860  0.02910  0.84010  Biso   1.000  H
  C36      1.0000 0.42060  0.99960  0.81090  Biso   1.000  C
  H15      1.0000 0.61690  0.04910  0.47180  Biso   1.000  H
  C37      1.0000 0.60940  0.02330  0.28260  Biso   1.000  C
  H16      1.0000 0.29230  0.08810  0.26310  Biso   1.000  H
  H17      1.0000 0.40890  0.00520  0.90130  Biso   1.000  H
  H18      1.0000 0.64170  0.03370  0.25450  Biso   1.000  H
  O11      1.0000 0.66800  0.96110  0.86210  Biso   1.000  O
  O12      1.0000 0.69220  0.01860  0.97930  Biso   1.000  O
  C38      1.0000 0.66470  0.00200  0.89800  Biso   1.000  C
  O13      1.0000 0.09900  0.81090  0.03010  Biso   1.000  O
  C39      1.0000 0.07170  0.83120  0.12400  Biso   1.000  C
  O14      1.0000 0.03860  0.81057  0.18420  Biso   1.000  O
  C40      1.0000 0.08460  0.88310  0.16460  Biso   1.000  C
  C41      1.0000 0.12280  0.90850  0.10150  Biso   1.000  C
  C42      1.0000 0.05600  0.90550  0.26300  Biso   1.000  C
  H19      1.0000 0.14180  0.89290  0.03200  Biso   1.000  H
  C43      1.0000 0.13290  0.95430  0.13700  Biso   1.000  C
  C44      1.0000 0.06470  0.95330  0.30340  Biso   1.000  C
  H20      1.0000 0.02960  0.88760  0.30430  Biso   1.000  H
  C45      1.0000 0.10250  0.97820  0.24370  Biso   1.000  C
  C46      1.0000 0.17580  0.97670  0.06010  Biso   1.000  C
  C47      1.0000 0.03250  0.97630  0.40530  Biso   1.000  C
  C48      1.0000 0.77680  0.79490  0.71780  Biso   1.000  C
  H21      1.0000 0.10950  0.01110  0.27060  Biso   1.000  H
  O15      1.0000 0.19360  0.01420  0.09290  Biso   1.000  O
  O16      1.0000 0.19470  0.95970  0.96300  Biso   1.000  O
  C49      1.0000 0.98450  0.99270  0.36570  Biso   1.000  C
  C50      1.0000 0.04760  0.98550  0.54000  Biso   1.000  C
  C51      1.0000 0.80250  0.83920  0.72130  Biso   1.000  C
  C52      1.0000 0.96730  0.98570  0.22570  Biso   1.000  C
  C53      1.0000 0.09540  0.96830  0.58840  Biso   1.000  C
  H22      1.0000 0.83780  0.84010  0.71750  Biso   1.000  H
  C54      1.0000 0.77530  0.88130  0.73000  Biso   1.000  C
  H23      1.0000 0.98860  0.97090  0.15990  Biso   1.000  H
  C55      1.0000 0.92060  0.00040  0.18910  Biso   1.000  C
  H24      1.0000 0.11690  0.95090  0.52820  Biso   1.000  H
  C56      1.0000 0.10940  0.97670  0.71740  Biso   1.000  C
  H25      1.0000 0.79230  0.91190  0.73690  Biso   1.000  H
  H26      1.0000 0.90890  0.99480  0.09870  Biso   1.000  H
  H27      1.0000 0.14170  0.96630  0.74550  Biso   1.000  H
  O17      1.0000 0.16800  0.03890  0.13790  Biso   1.000  O
  O18      1.0000 0.19220  0.98140  0.02070  Biso   1.000  O
  C57      1.0000 0.16470  0.99800  0.10200  Biso   1.000  C
  O19      1.0000 0.40100  0.68910  0.03010  Biso   1.000  O
  C58      1.0000 0.42830  0.66880  0.12400  Biso   1.000  C
  O20      1.0000 0.46140  0.68943  0.18420  Biso   1.000  O
  C59      1.0000 0.41540  0.61690  0.16460  Biso   1.000  C
  C60      1.0000 0.37720  0.59150  0.10150  Biso   1.000  C
  C61      1.0000 0.44400  0.59450  0.26300  Biso   1.000  C
  H28      1.0000 0.35820  0.60710  0.03200  Biso   1.000  H
  C62      1.0000 0.36710  0.54570  0.13700  Biso   1.000  C
  C63      1.0000 0.43530  0.54670  0.30340  Biso   1.000  C
  H29      1.0000 0.47040  0.61240  0.30430  Biso   1.000  H
  C64      1.0000 0.39750  0.52180  0.24370  Biso   1.000  C
  C65      1.0000 0.32420  0.52330  0.06010  Biso   1.000  C
  C66      1.0000 0.46750  0.52370  0.40530  Biso   1.000  C
  C67      1.0000 0.72320  0.70510  0.71780  Biso   1.000  C
  H30      1.0000 0.39050  0.48890  0.27060  Biso   1.000  H
  O21      1.0000 0.30640  0.48580  0.09290  Biso   1.000  O
  O22      1.0000 0.30530  0.54030  0.96300  Biso   1.000  O
  C68      1.0000 0.51550  0.50730  0.36570  Biso   1.000  C
  C69      1.0000 0.45240  0.51450  0.54000  Biso   1.000  C
  C70      1.0000 0.69750  0.66080  0.72130  Biso   1.000  C
  C71      1.0000 0.53270  0.51430  0.22570  Biso   1.000  C
  C72      1.0000 0.40460  0.53170  0.58840  Biso   1.000  C
  H31      1.0000 0.66220  0.65990  0.71750  Biso   1.000  H
  C73      1.0000 0.72470  0.61870  0.73000  Biso   1.000  C
  H32      1.0000 0.51140  0.52910  0.15990  Biso   1.000  H
  C74      1.0000 0.57940  0.49960  0.18910  Biso   1.000  C
  H33      1.0000 0.38310  0.54910  0.52820  Biso   1.000  H
  C75      1.0000 0.39060  0.52330  0.71740  Biso   1.000  C
  H34      1.0000 0.70770  0.58810  0.73690  Biso   1.000  H
  H35      1.0000 0.59110  0.50520  0.09870  Biso   1.000  H
  H36      1.0000 0.35830  0.53370  0.74550  Biso   1.000  H
  O23      1.0000 0.33200  0.46110  0.13790  Biso   1.000  O
  O24      1.0000 0.30780  0.51860  0.02070  Biso   1.000  O
  C76      1.0000 0.33530  0.50200  0.10200  Biso   1.000  C
  O25      1.0000 0.09900  0.68910  0.03010  Biso   1.000  O
  C77      1.0000 0.07170  0.66880  0.12400  Biso   1.000  C
  O26      1.0000 0.03860  0.68943  0.18420  Biso   1.000  O
  C78      1.0000 0.08460  0.61690  0.16460  Biso   1.000  C
  C79      1.0000 0.12280  0.59150  0.10150  Biso   1.000  C
  C80      1.0000 0.05600  0.59450  0.26300  Biso   1.000  C
  H37      1.0000 0.14180  0.60710  0.03200  Biso   1.000  H
  C81      1.0000 0.13290  0.54570  0.13700  Biso   1.000  C
  C82      1.0000 0.06470  0.54670  0.30340  Biso   1.000  C
  H38      1.0000 0.02960  0.61240  0.30430  Biso   1.000  H
  C83      1.0000 0.10250  0.52180  0.24370  Biso   1.000  C
  C84      1.0000 0.17580  0.52330  0.06010  Biso   1.000  C
  C85      1.0000 0.03250  0.52370  0.40530  Biso   1.000  C
  C86      1.0000 0.77680  0.70510  0.71780  Biso   1.000  C
  H39      1.0000 0.10950  0.48890  0.27060  Biso   1.000  H
  O27      1.0000 0.19360  0.48580  0.09290  Biso   1.000  O
  O28      1.0000 0.19470  0.54030  0.96300  Biso   1.000  O
  C87      1.0000 0.98450  0.50730  0.36570  Biso   1.000  C
  C88      1.0000 0.04760  0.51450  0.54000  Biso   1.000  C
  C89      1.0000 0.80250  0.66080  0.72130  Biso   1.000  C
  C90      1.0000 0.96730  0.51430  0.22570  Biso   1.000  C
  C91      1.0000 0.09540  0.53170  0.58840  Biso   1.000  C
  H40      1.0000 0.83780  0.65990  0.71750  Biso   1.000  H
  C92      1.0000 0.77530  0.61870  0.73000  Biso   1.000  C
  H41      1.0000 0.98860  0.52910  0.15990  Biso   1.000  H
  C93      1.0000 0.92060  0.49960  0.18910  Biso   1.000  C
  H42      1.0000 0.11690  0.54910  0.52820  Biso   1.000  H
  C94      1.0000 0.10940  0.52330  0.71740  Biso   1.000  C
  H43      1.0000 0.79230  0.58810  0.73690  Biso   1.000  H
  H44      1.0000 0.90890  0.50520  0.09870  Biso   1.000  H
  H45      1.0000 0.14170  0.53370  0.74550  Biso   1.000  H
  O29      1.0000 0.16800  0.46110  0.13790  Biso   1.000  O
  O30      1.0000 0.19220  0.51860  0.02070  Biso   1.000  O
  C95      1.0000 0.16470  0.50200  0.10200  Biso   1.000  C
  O31      1.0000 0.40100  0.81090  0.03010  Biso   1.000  O
  C96      1.0000 0.42830  0.83120  0.12400  Biso   1.000  C
  O32      1.0000 0.46140  0.81057  0.18420  Biso   1.000  O
  C97      1.0000 0.41540  0.88310  0.16460  Biso   1.000  C
  C98      1.0000 0.37720  0.90850  0.10150  Biso   1.000  C
  C99      1.0000 0.44400  0.90550  0.26300  Biso   1.000  C
  H46      1.0000 0.35820  0.89290  0.03200  Biso   1.000  H
  C100     1.0000 0.36710  0.95430  0.13700  Biso   1.000  C
  C101     1.0000 0.43530  0.95330  0.30340  Biso   1.000  C
  H47      1.0000 0.47040  0.88760  0.30430  Biso   1.000  H
  C102     1.0000 0.39750  0.97820  0.24370  Biso   1.000  C
  C103     1.0000 0.32420  0.97670  0.06010  Biso   1.000  C
  C104     1.0000 0.46750  0.97630  0.40530  Biso   1.000  C
  C105     1.0000 0.72320  0.79490  0.71780  Biso   1.000  C
  H48      1.0000 0.39050  0.01110  0.27060  Biso   1.000  H
  O33      1.0000 0.30640  0.01420  0.09290  Biso   1.000  O
  O34      1.0000 0.30530  0.95970  0.96300  Biso   1.000  O
  C106     1.0000 0.51550  0.99270  0.36570  Biso   1.000  C
  C107     1.0000 0.45240  0.98550  0.54000  Biso   1.000  C
  C108     1.0000 0.69750  0.83920  0.72130  Biso   1.000  C
  C109     1.0000 0.53270  0.98570  0.22570  Biso   1.000  C
  C110     1.0000 0.40460  0.96830  0.58840  Biso   1.000  C
  H49      1.0000 0.66220  0.84010  0.71750  Biso   1.000  H
  C111     1.0000 0.72470  0.88130  0.73000  Biso   1.000  C
  H50      1.0000 0.51140  0.97090  0.15990  Biso   1.000  H
  C112     1.0000 0.57940  0.00040  0.18910  Biso   1.000  C
  H51      1.0000 0.38310  0.95090  0.52820  Biso   1.000  H
  C113     1.0000 0.39060  0.97670  0.71740  Biso   1.000  C
  H52      1.0000 0.70770  0.91190  0.73690  Biso   1.000  H
  H53      1.0000 0.59110  0.99480  0.09870  Biso   1.000  H
  H54      1.0000 0.35830  0.96630  0.74550  Biso   1.000  H
  O35      1.0000 0.33200  0.03890  0.13790  Biso   1.000  O
  O36      1.0000 0.30780  0.98140  0.02070  Biso   1.000  O
  C114     1.0000 0.33530  0.99800  0.10200  Biso   1.000  C
  O37      1.0000 0.90100  0.18910  0.96990  Biso   1.000  O
  C115     1.0000 0.92830  0.16880  0.87600  Biso   1.000  C
  O38      1.0000 0.96140  0.18943  0.81580  Biso   1.000  O
  C116     1.0000 0.91540  0.11690  0.83540  Biso   1.000  C
  C117     1.0000 0.87720  0.09150  0.89850  Biso   1.000  C
  C118     1.0000 0.94400  0.09450  0.73700  Biso   1.000  C
  H55      1.0000 0.85820  0.10710  0.96800  Biso   1.000  H
  C119     1.0000 0.86710  0.04570  0.86300  Biso   1.000  C
  C120     1.0000 0.93530  0.04670  0.69660  Biso   1.000  C
  H56      1.0000 0.97040  0.11240  0.69570  Biso   1.000  H
  C121     1.0000 0.89750  0.02180  0.75630  Biso   1.000  C
  C122     1.0000 0.82420  0.02330  0.93990  Biso   1.000  C
  C123     1.0000 0.96750  0.02370  0.59470  Biso   1.000  C
  C124     1.0000 0.22320  0.20510  0.28220  Biso   1.000  C
  H57      1.0000 0.89050  0.98890  0.72940  Biso   1.000  H
  O39      1.0000 0.80640  0.98580  0.90710  Biso   1.000  O
  O40      1.0000 0.80530  0.04030  0.03700  Biso   1.000  O
  C125     1.0000 0.01550  0.00730  0.63430  Biso   1.000  C
  C126     1.0000 0.95240  0.01450  0.46000  Biso   1.000  C
  C127     1.0000 0.19750  0.16080  0.27870  Biso   1.000  C
  C128     1.0000 0.03270  0.01430  0.77430  Biso   1.000  C
  C129     1.0000 0.90460  0.03170  0.41160  Biso   1.000  C
  H58      1.0000 0.16220  0.15990  0.28250  Biso   1.000  H
  C130     1.0000 0.22470  0.11870  0.27000  Biso   1.000  C
  H59      1.0000 0.01140  0.02910  0.84010  Biso   1.000  H
  C131     1.0000 0.07940  0.99960  0.81090  Biso   1.000  C
  H60      1.0000 0.88310  0.04910  0.47180  Biso   1.000  H
  C132     1.0000 0.89060  0.02330  0.28260  Biso   1.000  C
  H61      1.0000 0.20770  0.08810  0.26310  Biso   1.000  H
  H62      1.0000 0.09110  0.00520  0.90130  Biso   1.000  H
  H63      1.0000 0.85830  0.03370  0.25450  Biso   1.000  H
  O41      1.0000 0.83200  0.96110  0.86210  Biso   1.000  O
  O42      1.0000 0.80780  0.01860  0.97930  Biso   1.000  O
  C133     1.0000 0.83530  0.00200  0.89800  Biso   1.000  C
  O43      1.0000 0.59900  0.31090  0.96990  Biso   1.000  O
  C134     1.0000 0.57170  0.33120  0.87600  Biso   1.000  C
  O44      1.0000 0.53860  0.31057  0.81580  Biso   1.000  O
  C135     1.0000 0.58460  0.38310  0.83540  Biso   1.000  C
  C136     1.0000 0.62280  0.40850  0.89850  Biso   1.000  C
  C137     1.0000 0.55600  0.40550  0.73700  Biso   1.000  C
  H64      1.0000 0.64180  0.39290  0.96800  Biso   1.000  H
  C138     1.0000 0.63290  0.45430  0.86300  Biso   1.000  C
  C139     1.0000 0.56470  0.45330  0.69660  Biso   1.000  C
  H65      1.0000 0.52960  0.38760  0.69570  Biso   1.000  H
  C140     1.0000 0.60250  0.47820  0.75630  Biso   1.000  C
  C141     1.0000 0.67580  0.47670  0.93990  Biso   1.000  C
  C142     1.0000 0.53250  0.47630  0.59470  Biso   1.000  C
  C143     1.0000 0.27680  0.29490  0.28220  Biso   1.000  C
  H66      1.0000 0.60950  0.51110  0.72940  Biso   1.000  H
  O45      1.0000 0.69360  0.51420  0.90710  Biso   1.000  O
  O46      1.0000 0.69470  0.45970  0.03700  Biso   1.000  O
  C144     1.0000 0.48450  0.49270  0.63430  Biso   1.000  C
  C145     1.0000 0.54760  0.48550  0.46000  Biso   1.000  C
  C146     1.0000 0.30250  0.33920  0.27870  Biso   1.000  C
  C147     1.0000 0.46730  0.48570  0.77430  Biso   1.000  C
  C148     1.0000 0.59540  0.46830  0.41160  Biso   1.000  C
  H67      1.0000 0.33780  0.34010  0.28250  Biso   1.000  H
  C149     1.0000 0.27530  0.38130  0.27000  Biso   1.000  C
  H68      1.0000 0.48860  0.47090  0.84010  Biso   1.000  H
  C150     1.0000 0.42060  0.50040  0.81090  Biso   1.000  C
  H69      1.0000 0.61690  0.45090  0.47180  Biso   1.000  H
  C151     1.0000 0.60940  0.47670  0.28260  Biso   1.000  C
  H70      1.0000 0.29230  0.41190  0.26310  Biso   1.000  H
  H71      1.0000 0.40890  0.49480  0.90130  Biso   1.000  H
  H72      1.0000 0.64170  0.46630  0.25450  Biso   1.000  H
  O47      1.0000 0.66800  0.53890  0.86210  Biso   1.000  O
  O48      1.0000 0.69220  0.48140  0.97930  Biso   1.000  O
  C152     1.0000 0.66470  0.49800  0.89800  Biso   1.000  C
  Zn1      1.0000 0.90436  0.25000  0.05862  Biso   1.000  Zn
  O49      1.0000 0.97860  0.25000  0.11770  Biso   1.000  O
  C153     1.0000 0.02330  0.25000  0.09470  Biso   1.000  C
  O50      1.0000 0.04220  0.25000  0.97720  Biso   1.000  O
  C154     1.0000 0.05830  0.25000  0.20880  Biso   1.000  C
  Zn2      1.0000 0.99961  0.25000  0.81392  Biso   1.000  Zn
  C155     1.0000 0.04080  0.25000  0.34620  Biso   1.000  C
  C156     1.0000 0.10990  0.25000  0.19050  Biso   1.000  C
  O51      1.0000 0.00600  0.25000  0.61100  Biso   1.000  O
  O52      1.0000 0.07470  0.25000  0.69020  Biso   1.000  O
  H73      1.0000 0.00590  0.25000  0.36250  Biso   1.000  H
  C157     1.0000 0.07210  0.25000  0.45380  Biso   1.000  C
  C158     1.0000 0.14270  0.25000  0.29680  Biso   1.000  C
  H74      1.0000 0.12270  0.25000  0.09980  Biso   1.000  H
  C159     1.0000 0.12080  0.25000  0.43110  Biso   1.000  C
  C160     1.0000 0.05000  0.25000  0.59620  Biso   1.000  C
  C161     1.0000 0.19680  0.25000  0.28290  Biso   1.000  C
  H75      1.0000 0.14240  0.25000  0.50810  Biso   1.000  H
  Zn3      1.0000 0.59564  0.25000  0.05862  Biso   1.000  Zn
  O53      1.0000 0.52140  0.25000  0.11770  Biso   1.000  O
  C162     1.0000 0.47670  0.25000  0.09470  Biso   1.000  C
  O54      1.0000 0.45780  0.25000  0.97720  Biso   1.000  O
  C163     1.0000 0.44170  0.25000  0.20880  Biso   1.000  C
  Zn4      1.0000 0.50039  0.25000  0.81392  Biso   1.000  Zn
  C164     1.0000 0.45920  0.25000  0.34620  Biso   1.000  C
  C165     1.0000 0.39010  0.25000  0.19050  Biso   1.000  C
  O55      1.0000 0.49400  0.25000  0.61100  Biso   1.000  O
  O56      1.0000 0.42530  0.25000  0.69020  Biso   1.000  O
  H76      1.0000 0.49410  0.25000  0.36250  Biso   1.000  H
  C166     1.0000 0.42790  0.25000  0.45380  Biso   1.000  C
  C167     1.0000 0.35730  0.25000  0.29680  Biso   1.000  C
  H77      1.0000 0.37730  0.25000  0.09980  Biso   1.000  H
  C168     1.0000 0.37920  0.25000  0.43110  Biso   1.000  C
  C169     1.0000 0.45000  0.25000  0.59620  Biso   1.000  C
  C170     1.0000 0.30320  0.25000  0.28290  Biso   1.000  C
  H78      1.0000 0.35760  0.25000  0.50810  Biso   1.000  H
  Zn5      1.0000 0.09564  0.75000  0.94138  Biso   1.000  Zn
  O57      1.0000 0.02140  0.75000  0.88230  Biso   1.000  O
  C171     1.0000 0.97670  0.75000  0.90530  Biso   1.000  C
  O58      1.0000 0.95780  0.75000  0.02280  Biso   1.000  O
  C172     1.0000 0.94170  0.75000  0.79120  Biso   1.000  C
  Zn6      1.0000 0.00039  0.75000  0.18608  Biso   1.000  Zn
  C173     1.0000 0.95920  0.75000  0.65380  Biso   1.000  C
  C174     1.0000 0.89010  0.75000  0.80950  Biso   1.000  C
  O59      1.0000 0.99400  0.75000  0.38900  Biso   1.000  O
  O60      1.0000 0.92530  0.75000  0.30980  Biso   1.000  O
  H79      1.0000 0.99410  0.75000  0.63750  Biso   1.000  H
  C175     1.0000 0.92790  0.75000  0.54620  Biso   1.000  C
  C176     1.0000 0.85730  0.75000  0.70320  Biso   1.000  C
  H80      1.0000 0.87730  0.75000  0.90020  Biso   1.000  H
  C177     1.0000 0.87920  0.75000  0.56890  Biso   1.000  C
  C178     1.0000 0.95000  0.75000  0.40380  Biso   1.000  C
  C179     1.0000 0.80320  0.75000  0.71710  Biso   1.000  C
  H81      1.0000 0.85760  0.75000  0.49190  Biso   1.000  H
  Zn7      1.0000 0.40436  0.75000  0.94138  Biso   1.000  Zn
  O61      1.0000 0.47860  0.75000  0.88230  Biso   1.000  O
  C180     1.0000 0.52330  0.75000  0.90530  Biso   1.000  C
  O62      1.0000 0.54220  0.75000  0.02280  Biso   1.000  O
  C181     1.0000 0.55830  0.75000  0.79120  Biso   1.000  C
  Zn8      1.0000 0.49961  0.75000  0.18608  Biso   1.000  Zn
  C182     1.0000 0.54080  0.75000  0.65380  Biso   1.000  C
  C183     1.0000 0.60990  0.75000  0.80950  Biso   1.000  C
  O63      1.0000 0.50600  0.75000  0.38900  Biso   1.000  O
  O64      1.0000 0.57470  0.75000  0.30980  Biso   1.000  O
  H82      1.0000 0.50590  0.75000  0.63750  Biso   1.000  H
  C184     1.0000 0.57210  0.75000  0.54620  Biso   1.000  C
  C185     1.0000 0.64270  0.75000  0.70320  Biso   1.000  C
  H83      1.0000 0.62270  0.75000  0.90020  Biso   1.000  H
  C186     1.0000 0.62080  0.75000  0.56890  Biso   1.000  C
  C187     1.0000 0.55000  0.75000  0.40380  Biso   1.000  C
  C188     1.0000 0.69680  0.75000  0.71710  Biso   1.000  C
  H84      1.0000 0.64240  0.75000  0.49190  Biso   1.000  H
  Zn9      1.0000 0.75000  0.51170  0.09632  Biso   1.000  Zn
  Zn10     1.0000 0.75000  0.98830  0.09632  Biso   1.000  Zn
  Zn11     1.0000 0.25000  0.01170  0.90368  Biso   1.000  Zn
  Zn12     1.0000 0.25000  0.48830  0.90368  Biso   1.000  Zn
