data_image0
_cell_length_a       19.6971
_cell_length_b       17.3615
_cell_length_c       13.8979
_cell_angle_alpha    90
_cell_angle_beta     90.901
_cell_angle_gamma    90

_symmetry_space_group_name_H-M    "P 1"
_symmetry_int_tables_number       1

loop_
  _symmetry_equiv_pos_as_xyz
  'x, y, z'

loop_
  _atom_site_label
  _atom_site_occupancy
  _atom_site_fract_x
  _atom_site_fract_y
  _atom_site_fract_z
  _atom_site_thermal_displace_type
  _atom_site_B_iso_or_equiv
  _atom_site_type_symbol
  Cd1      1.0000 0.08837  0.26252  0.32288  Biso   1.000  Cd
  Cd2      1.0000 0.35982  0.39454  0.10000  Biso   1.000  Cd
  C1       1.0000 0.30190  0.33240  0.29880  Biso   1.000  C
  H1       1.0000 0.34650  0.33460  0.32570  Biso   1.000  H
  C2       1.0000 0.21950  0.34290  0.20430  Biso   1.000  C
  H2       1.0000 0.19240  0.35410  0.14890  Biso   1.000  H
  C3       1.0000 0.12980  0.33740  0.62260  Biso   1.000  C
  H3       1.0000 0.15890  0.34140  0.67770  Biso   1.000  H
  C4       1.0000 0.04460  0.34260  0.53130  Biso   1.000  C
  H4       1.0000 0.99980  0.35110  0.50750  Biso   1.000  H
  C5       1.0000 0.19620  0.06930  0.46060  Biso   1.000  C
  H5       1.0000 0.22910  0.04930  0.50460  Biso   1.000  H
  C6       1.0000 0.11800  0.07760  0.36060  Biso   1.000  C
  H6       1.0000 0.08230  0.06510  0.31660  Biso   1.000  H
  C7       1.0000 0.11880  0.17500  0.11310  Biso   1.000  C
  H7       1.0000 0.16550  0.16830  0.12880  Biso   1.000  H
  C8       1.0000 0.02540  0.17150  0.04070  Biso   1.000  C
  H8       1.0000 0.99100  0.16200  0.99360  Biso   1.000  H
  C9       1.0000 0.04690  0.44560  0.28680  Biso   1.000  C
  H9       1.0000 0.08740  0.46220  0.31870  Biso   1.000  H
  C10      1.0000 0.50230  0.38490  0.23710  Biso   1.000  C
  H10      1.0000 0.52410  0.34930  0.19460  Biso   1.000  H
  C11      1.0000 0.48320  0.46070  0.35200  Biso   1.000  C
  H11      1.0000 0.48730  0.49060  0.40990  Biso   1.000  H
  N1       1.0000 0.24996  0.30530  0.34540  Biso   1.000  N
  N2       1.0000 0.19519  0.31200  0.28340  Biso   1.000  N
  N3       1.0000 0.28655  0.35690  0.20990  Biso   1.000  N
  N4       1.0000 0.15041  0.31380  0.53770  Biso   1.000  N
  N5       1.0000 0.09472  0.31710  0.47750  Biso   1.000  N
  N6       1.0000 0.06380  0.35520  0.62290  Biso   1.000  N
  N7       1.0000 0.18886  0.14350  0.44380  Biso   1.000  N
  N8       1.0000 0.13760  0.14900  0.37830  Biso   1.000  N
  N9       1.0000 0.15308  0.02470  0.41010  Biso   1.000  N
  N10      1.0000 0.07517  0.20870  0.17050  Biso   1.000  N
  N11      1.0000 0.01409  0.20650  0.12340  Biso   1.000  N
  N12      1.0000 0.09017  0.15090  0.03000  Biso   1.000  N
  N13      1.0000 0.03052  0.37260  0.27390  Biso   1.000  N
  N14      1.0000 0.44160  0.41170  0.22040  Biso   1.000  N
  N15      1.0000 0.42910  0.46170  0.29620  Biso   1.000  N
  N16      1.0000 0.53360  0.41340  0.32030  Biso   1.000  N
  Cd3      1.0000 0.58837  0.76252  0.32288  Biso   1.000  Cd
  Cd4      1.0000 0.85982  0.89454  0.10000  Biso   1.000  Cd
  C12      1.0000 0.80190  0.83240  0.29880  Biso   1.000  C
  H12      1.0000 0.84650  0.83460  0.32570  Biso   1.000  H
  C13      1.0000 0.71950  0.84290  0.20430  Biso   1.000  C
  H13      1.0000 0.69240  0.85410  0.14890  Biso   1.000  H
  C14      1.0000 0.62980  0.83740  0.62260  Biso   1.000  C
  H14      1.0000 0.65890  0.84140  0.67770  Biso   1.000  H
  C15      1.0000 0.54460  0.84260  0.53130  Biso   1.000  C
  H15      1.0000 0.49980  0.85110  0.50750  Biso   1.000  H
  C16      1.0000 0.69620  0.56930  0.46060  Biso   1.000  C
  H16      1.0000 0.72910  0.54930  0.50460  Biso   1.000  H
  C17      1.0000 0.61800  0.57760  0.36060  Biso   1.000  C
  H17      1.0000 0.58230  0.56510  0.31660  Biso   1.000  H
  C18      1.0000 0.61880  0.67500  0.11310  Biso   1.000  C
  H18      1.0000 0.66550  0.66830  0.12880  Biso   1.000  H
  C19      1.0000 0.52540  0.67150  0.04070  Biso   1.000  C
  H19      1.0000 0.49100  0.66200  0.99360  Biso   1.000  H
  C20      1.0000 0.54690  0.94560  0.28680  Biso   1.000  C
  H20      1.0000 0.58740  0.96220  0.31870  Biso   1.000  H
  C21      1.0000 0.00230  0.88490  0.23710  Biso   1.000  C
  H21      1.0000 0.02410  0.84930  0.19460  Biso   1.000  H
  C22      1.0000 0.98320  0.96070  0.35200  Biso   1.000  C
  H22      1.0000 0.98730  0.99060  0.40990  Biso   1.000  H
  N17      1.0000 0.74996  0.80530  0.34540  Biso   1.000  N
  N18      1.0000 0.69519  0.81200  0.28340  Biso   1.000  N
  N19      1.0000 0.78655  0.85690  0.20990  Biso   1.000  N
  N20      1.0000 0.65041  0.81380  0.53770  Biso   1.000  N
  N21      1.0000 0.59472  0.81710  0.47750  Biso   1.000  N
  N22      1.0000 0.56380  0.85520  0.62290  Biso   1.000  N
  N23      1.0000 0.68886  0.64350  0.44380  Biso   1.000  N
  N24      1.0000 0.63760  0.64900  0.37830  Biso   1.000  N
  N25      1.0000 0.65308  0.52470  0.41010  Biso   1.000  N
  N26      1.0000 0.57517  0.70870  0.17050  Biso   1.000  N
  N27      1.0000 0.51409  0.70650  0.12340  Biso   1.000  N
  N28      1.0000 0.59017  0.65090  0.03000  Biso   1.000  N
  N29      1.0000 0.53052  0.87260  0.27390  Biso   1.000  N
  N30      1.0000 0.94160  0.91170  0.22040  Biso   1.000  N
  N31      1.0000 0.92910  0.96170  0.29620  Biso   1.000  N
  N32      1.0000 0.03360  0.91340  0.32030  Biso   1.000  N
  Cd5      1.0000 0.91163  0.26252  0.17712  Biso   1.000  Cd
  Cd6      1.0000 0.64018  0.39454  0.40000  Biso   1.000  Cd
  C23      1.0000 0.69810  0.33240  0.20120  Biso   1.000  C
  H23      1.0000 0.65350  0.33460  0.17430  Biso   1.000  H
  C24      1.0000 0.78050  0.34290  0.29570  Biso   1.000  C
  H24      1.0000 0.80760  0.35410  0.35110  Biso   1.000  H
  C25      1.0000 0.87020  0.33740  0.87740  Biso   1.000  C
  H25      1.0000 0.84110  0.34140  0.82230  Biso   1.000  H
  C26      1.0000 0.95540  0.34260  0.96870  Biso   1.000  C
  H26      1.0000 0.00020  0.35110  0.99250  Biso   1.000  H
  C27      1.0000 0.80380  0.06930  0.03940  Biso   1.000  C
  H27      1.0000 0.77090  0.04930  0.99540  Biso   1.000  H
  C28      1.0000 0.88200  0.07760  0.13940  Biso   1.000  C
  H28      1.0000 0.91770  0.06510  0.18340  Biso   1.000  H
  C29      1.0000 0.88120  0.17500  0.38690  Biso   1.000  C
  H29      1.0000 0.83450  0.16830  0.37120  Biso   1.000  H
  C30      1.0000 0.97460  0.17150  0.45930  Biso   1.000  C
  H30      1.0000 0.00900  0.16200  0.50640  Biso   1.000  H
  C31      1.0000 0.95310  0.44560  0.21320  Biso   1.000  C
  H31      1.0000 0.91260  0.46220  0.18130  Biso   1.000  H
  C32      1.0000 0.49770  0.38490  0.26290  Biso   1.000  C
  H32      1.0000 0.47590  0.34930  0.30540  Biso   1.000  H
  C33      1.0000 0.51680  0.46070  0.14800  Biso   1.000  C
  H33      1.0000 0.51270  0.49060  0.09010  Biso   1.000  H
  N33      1.0000 0.75004  0.30530  0.15460  Biso   1.000  N
  N34      1.0000 0.80481  0.31200  0.21660  Biso   1.000  N
  N35      1.0000 0.71345  0.35690  0.29010  Biso   1.000  N
  N36      1.0000 0.84959  0.31380  0.96230  Biso   1.000  N
  N37      1.0000 0.90528  0.31710  0.02250  Biso   1.000  N
  N38      1.0000 0.93620  0.35520  0.87710  Biso   1.000  N
  N39      1.0000 0.81114  0.14350  0.05620  Biso   1.000  N
  N40      1.0000 0.86240  0.14900  0.12170  Biso   1.000  N
  N41      1.0000 0.84692  0.02470  0.08990  Biso   1.000  N
  N42      1.0000 0.92483  0.20870  0.32950  Biso   1.000  N
  N43      1.0000 0.98591  0.20650  0.37660  Biso   1.000  N
  N44      1.0000 0.90983  0.15090  0.47000  Biso   1.000  N
  N45      1.0000 0.96948  0.37260  0.22610  Biso   1.000  N
  N46      1.0000 0.55840  0.41170  0.27960  Biso   1.000  N
  N47      1.0000 0.57090  0.46170  0.20380  Biso   1.000  N
  N48      1.0000 0.46640  0.41340  0.17970  Biso   1.000  N
  Cd7      1.0000 0.41163  0.76252  0.17712  Biso   1.000  Cd
  Cd8      1.0000 0.14018  0.89454  0.40000  Biso   1.000  Cd
  C34      1.0000 0.19810  0.83240  0.20120  Biso   1.000  C
  H34      1.0000 0.15350  0.83460  0.17430  Biso   1.000  H
  C35      1.0000 0.28050  0.84290  0.29570  Biso   1.000  C
  H35      1.0000 0.30760  0.85410  0.35110  Biso   1.000  H
  C36      1.0000 0.37020  0.83740  0.87740  Biso   1.000  C
  H36      1.0000 0.34110  0.84140  0.82230  Biso   1.000  H
  C37      1.0000 0.45540  0.84260  0.96870  Biso   1.000  C
  H37      1.0000 0.50020  0.85110  0.99250  Biso   1.000  H
  C38      1.0000 0.30380  0.56930  0.03940  Biso   1.000  C
  H38      1.0000 0.27090  0.54930  0.99540  Biso   1.000  H
  C39      1.0000 0.38200  0.57760  0.13940  Biso   1.000  C
  H39      1.0000 0.41770  0.56510  0.18340  Biso   1.000  H
  C40      1.0000 0.38120  0.67500  0.38690  Biso   1.000  C
  H40      1.0000 0.33450  0.66830  0.37120  Biso   1.000  H
  C41      1.0000 0.47460  0.67150  0.45930  Biso   1.000  C
  H41      1.0000 0.50900  0.66200  0.50640  Biso   1.000  H
  C42      1.0000 0.45310  0.94560  0.21320  Biso   1.000  C
  H42      1.0000 0.41260  0.96220  0.18130  Biso   1.000  H
  C43      1.0000 0.99770  0.88490  0.26290  Biso   1.000  C
  H43      1.0000 0.97590  0.84930  0.30540  Biso   1.000  H
  C44      1.0000 0.01680  0.96070  0.14800  Biso   1.000  C
  H44      1.0000 0.01270  0.99060  0.09010  Biso   1.000  H
  N49      1.0000 0.25004  0.80530  0.15460  Biso   1.000  N
  N50      1.0000 0.30481  0.81200  0.21660  Biso   1.000  N
  N51      1.0000 0.21345  0.85690  0.29010  Biso   1.000  N
  N52      1.0000 0.34959  0.81380  0.96230  Biso   1.000  N
  N53      1.0000 0.40528  0.81710  0.02250  Biso   1.000  N
  N54      1.0000 0.43620  0.85520  0.87710  Biso   1.000  N
  N55      1.0000 0.31114  0.64350  0.05620  Biso   1.000  N
  N56      1.0000 0.36240  0.64900  0.12170  Biso   1.000  N
  N57      1.0000 0.34692  0.52470  0.08990  Biso   1.000  N
  N58      1.0000 0.42483  0.70870  0.32950  Biso   1.000  N
  N59      1.0000 0.48591  0.70650  0.37660  Biso   1.000  N
  N60      1.0000 0.40983  0.65090  0.47000  Biso   1.000  N
  N61      1.0000 0.46948  0.87260  0.22610  Biso   1.000  N
  N62      1.0000 0.05840  0.91170  0.27960  Biso   1.000  N
  N63      1.0000 0.07090  0.96170  0.20380  Biso   1.000  N
  N64      1.0000 0.96640  0.91340  0.17970  Biso   1.000  N
  Cd9      1.0000 0.91163  0.73748  0.67712  Biso   1.000  Cd
  Cd10     1.0000 0.64018  0.60546  0.90000  Biso   1.000  Cd
  C45      1.0000 0.69810  0.66760  0.70120  Biso   1.000  C
  H45      1.0000 0.65350  0.66540  0.67430  Biso   1.000  H
  C46      1.0000 0.78050  0.65710  0.79570  Biso   1.000  C
  H46      1.0000 0.80760  0.64590  0.85110  Biso   1.000  H
  C47      1.0000 0.87020  0.66260  0.37740  Biso   1.000  C
  H47      1.0000 0.84110  0.65860  0.32230  Biso   1.000  H
  C48      1.0000 0.95540  0.65740  0.46870  Biso   1.000  C
  H48      1.0000 0.00020  0.64890  0.49250  Biso   1.000  H
  C49      1.0000 0.80380  0.93070  0.53940  Biso   1.000  C
  H49      1.0000 0.77090  0.95070  0.49540  Biso   1.000  H
  C50      1.0000 0.88200  0.92240  0.63940  Biso   1.000  C
  H50      1.0000 0.91770  0.93490  0.68340  Biso   1.000  H
  C51      1.0000 0.88120  0.82500  0.88690  Biso   1.000  C
  H51      1.0000 0.83450  0.83170  0.87120  Biso   1.000  H
  C52      1.0000 0.97460  0.82850  0.95930  Biso   1.000  C
  H52      1.0000 0.00900  0.83800  0.00640  Biso   1.000  H
  C53      1.0000 0.95310  0.55440  0.71320  Biso   1.000  C
  H53      1.0000 0.91260  0.53780  0.68130  Biso   1.000  H
  C54      1.0000 0.49770  0.61510  0.76290  Biso   1.000  C
  H54      1.0000 0.47590  0.65070  0.80540  Biso   1.000  H
  C55      1.0000 0.51680  0.53930  0.64800  Biso   1.000  C
  H55      1.0000 0.51270  0.50940  0.59010  Biso   1.000  H
  N65      1.0000 0.75004  0.69470  0.65460  Biso   1.000  N
  N66      1.0000 0.80481  0.68800  0.71660  Biso   1.000  N
  N67      1.0000 0.71345  0.64310  0.79010  Biso   1.000  N
  N68      1.0000 0.84959  0.68620  0.46230  Biso   1.000  N
  N69      1.0000 0.90528  0.68290  0.52250  Biso   1.000  N
  N70      1.0000 0.93620  0.64480  0.37710  Biso   1.000  N
  N71      1.0000 0.81114  0.85650  0.55620  Biso   1.000  N
  N72      1.0000 0.86240  0.85100  0.62170  Biso   1.000  N
  N73      1.0000 0.84692  0.97530  0.58990  Biso   1.000  N
  N74      1.0000 0.92483  0.79130  0.82950  Biso   1.000  N
  N75      1.0000 0.98591  0.79350  0.87660  Biso   1.000  N
  N76      1.0000 0.90983  0.84910  0.97000  Biso   1.000  N
  N77      1.0000 0.96948  0.62740  0.72610  Biso   1.000  N
  N78      1.0000 0.55840  0.58830  0.77960  Biso   1.000  N
  N79      1.0000 0.57090  0.53830  0.70380  Biso   1.000  N
  N80      1.0000 0.46640  0.58660  0.67970  Biso   1.000  N
  Cd11     1.0000 0.41163  0.23748  0.67712  Biso   1.000  Cd
  Cd12     1.0000 0.14018  0.10546  0.90000  Biso   1.000  Cd
  C56      1.0000 0.19810  0.16760  0.70120  Biso   1.000  C
  H56      1.0000 0.15350  0.16540  0.67430  Biso   1.000  H
  C57      1.0000 0.28050  0.15710  0.79570  Biso   1.000  C
  H57      1.0000 0.30760  0.14590  0.85110  Biso   1.000  H
  C58      1.0000 0.37020  0.16260  0.37740  Biso   1.000  C
  H58      1.0000 0.34110  0.15860  0.32230  Biso   1.000  H
  C59      1.0000 0.45540  0.15740  0.46870  Biso   1.000  C
  H59      1.0000 0.50020  0.14890  0.49250  Biso   1.000  H
  C60      1.0000 0.30380  0.43070  0.53940  Biso   1.000  C
  H60      1.0000 0.27090  0.45070  0.49540  Biso   1.000  H
  C61      1.0000 0.38200  0.42240  0.63940  Biso   1.000  C
  H61      1.0000 0.41770  0.43490  0.68340  Biso   1.000  H
  C62      1.0000 0.38120  0.32500  0.88690  Biso   1.000  C
  H62      1.0000 0.33450  0.33170  0.87120  Biso   1.000  H
  C63      1.0000 0.47460  0.32850  0.95930  Biso   1.000  C
  H63      1.0000 0.50900  0.33800  0.00640  Biso   1.000  H
  C64      1.0000 0.45310  0.05440  0.71320  Biso   1.000  C
  H64      1.0000 0.41260  0.03780  0.68130  Biso   1.000  H
  C65      1.0000 0.99770  0.11510  0.76290  Biso   1.000  C
  H65      1.0000 0.97590  0.15070  0.80540  Biso   1.000  H
  C66      1.0000 0.01680  0.03930  0.64800  Biso   1.000  C
  H66      1.0000 0.01270  0.00940  0.59010  Biso   1.000  H
  N81      1.0000 0.25004  0.19470  0.65460  Biso   1.000  N
  N82      1.0000 0.30481  0.18800  0.71660  Biso   1.000  N
  N83      1.0000 0.21345  0.14310  0.79010  Biso   1.000  N
  N84      1.0000 0.34959  0.18620  0.46230  Biso   1.000  N
  N85      1.0000 0.40528  0.18290  0.52250  Biso   1.000  N
  N86      1.0000 0.43620  0.14480  0.37710  Biso   1.000  N
  N87      1.0000 0.31114  0.35650  0.55620  Biso   1.000  N
  N88      1.0000 0.36240  0.35100  0.62170  Biso   1.000  N
  N89      1.0000 0.34692  0.47530  0.58990  Biso   1.000  N
  N90      1.0000 0.42483  0.29130  0.82950  Biso   1.000  N
  N91      1.0000 0.48591  0.29350  0.87660  Biso   1.000  N
  N92      1.0000 0.40983  0.34910  0.97000  Biso   1.000  N
  N93      1.0000 0.46948  0.12740  0.72610  Biso   1.000  N
  N94      1.0000 0.05840  0.08830  0.77960  Biso   1.000  N
  N95      1.0000 0.07090  0.03830  0.70380  Biso   1.000  N
  N96      1.0000 0.96640  0.08660  0.67970  Biso   1.000  N
  Cd13     1.0000 0.08837  0.73748  0.82288  Biso   1.000  Cd
  Cd14     1.0000 0.35982  0.60546  0.60000  Biso   1.000  Cd
  C67      1.0000 0.30190  0.66760  0.79880  Biso   1.000  C
  H67      1.0000 0.34650  0.66540  0.82570  Biso   1.000  H
  C68      1.0000 0.21950  0.65710  0.70430  Biso   1.000  C
  H68      1.0000 0.19240  0.64590  0.64890  Biso   1.000  H
  C69      1.0000 0.12980  0.66260  0.12260  Biso   1.000  C
  H69      1.0000 0.15890  0.65860  0.17770  Biso   1.000  H
  C70      1.0000 0.04460  0.65740  0.03130  Biso   1.000  C
  H70      1.0000 0.99980  0.64890  0.00750  Biso   1.000  H
  C71      1.0000 0.19620  0.93070  0.96060  Biso   1.000  C
  H71      1.0000 0.22910  0.95070  0.00460  Biso   1.000  H
  C72      1.0000 0.11800  0.92240  0.86060  Biso   1.000  C
  H72      1.0000 0.08230  0.93490  0.81660  Biso   1.000  H
  C73      1.0000 0.11880  0.82500  0.61310  Biso   1.000  C
  H73      1.0000 0.16550  0.83170  0.62880  Biso   1.000  H
  C74      1.0000 0.02540  0.82850  0.54070  Biso   1.000  C
  H74      1.0000 0.99100  0.83800  0.49360  Biso   1.000  H
  C75      1.0000 0.04690  0.55440  0.78680  Biso   1.000  C
  H75      1.0000 0.08740  0.53780  0.81870  Biso   1.000  H
  C76      1.0000 0.50230  0.61510  0.73710  Biso   1.000  C
  H76      1.0000 0.52410  0.65070  0.69460  Biso   1.000  H
  C77      1.0000 0.48320  0.53930  0.85200  Biso   1.000  C
  H77      1.0000 0.48730  0.50940  0.90990  Biso   1.000  H
  N97      1.0000 0.24996  0.69470  0.84540  Biso   1.000  N
  N98      1.0000 0.19519  0.68800  0.78340  Biso   1.000  N
  N99      1.0000 0.28655  0.64310  0.70990  Biso   1.000  N
  N100     1.0000 0.15041  0.68620  0.03770  Biso   1.000  N
  N101     1.0000 0.09472  0.68290  0.97750  Biso   1.000  N
  N102     1.0000 0.06380  0.64480  0.12290  Biso   1.000  N
  N103     1.0000 0.18886  0.85650  0.94380  Biso   1.000  N
  N104     1.0000 0.13760  0.85100  0.87830  Biso   1.000  N
  N105     1.0000 0.15308  0.97530  0.91010  Biso   1.000  N
  N106     1.0000 0.07517  0.79130  0.67050  Biso   1.000  N
  N107     1.0000 0.01409  0.79350  0.62340  Biso   1.000  N
  N108     1.0000 0.09017  0.84910  0.53000  Biso   1.000  N
  N109     1.0000 0.03052  0.62740  0.77390  Biso   1.000  N
  N110     1.0000 0.44160  0.58830  0.72040  Biso   1.000  N
  N111     1.0000 0.42910  0.53830  0.79620  Biso   1.000  N
  N112     1.0000 0.53360  0.58660  0.82030  Biso   1.000  N
  Cd15     1.0000 0.58837  0.23748  0.82288  Biso   1.000  Cd
  Cd16     1.0000 0.85982  0.10546  0.60000  Biso   1.000  Cd
  C78      1.0000 0.80190  0.16760  0.79880  Biso   1.000  C
  H78      1.0000 0.84650  0.16540  0.82570  Biso   1.000  H
  C79      1.0000 0.71950  0.15710  0.70430  Biso   1.000  C
  H79      1.0000 0.69240  0.14590  0.64890  Biso   1.000  H
  C80      1.0000 0.62980  0.16260  0.12260  Biso   1.000  C
  H80      1.0000 0.65890  0.15860  0.17770  Biso   1.000  H
  C81      1.0000 0.54460  0.15740  0.03130  Biso   1.000  C
  H81      1.0000 0.49980  0.14890  0.00750  Biso   1.000  H
  C82      1.0000 0.69620  0.43070  0.96060  Biso   1.000  C
  H82      1.0000 0.72910  0.45070  0.00460  Biso   1.000  H
  C83      1.0000 0.61800  0.42240  0.86060  Biso   1.000  C
  H83      1.0000 0.58230  0.43490  0.81660  Biso   1.000  H
  C84      1.0000 0.61880  0.32500  0.61310  Biso   1.000  C
  H84      1.0000 0.66550  0.33170  0.62880  Biso   1.000  H
  C85      1.0000 0.52540  0.32850  0.54070  Biso   1.000  C
  H85      1.0000 0.49100  0.33800  0.49360  Biso   1.000  H
  C86      1.0000 0.54690  0.05440  0.78680  Biso   1.000  C
  H86      1.0000 0.58740  0.03780  0.81870  Biso   1.000  H
  C87      1.0000 0.00230  0.11510  0.73710  Biso   1.000  C
  H87      1.0000 0.02410  0.15070  0.69460  Biso   1.000  H
  C88      1.0000 0.98320  0.03930  0.85200  Biso   1.000  C
  H88      1.0000 0.98730  0.00940  0.90990  Biso   1.000  H
  N113     1.0000 0.74996  0.19470  0.84540  Biso   1.000  N
  N114     1.0000 0.69519  0.18800  0.78340  Biso   1.000  N
  N115     1.0000 0.78655  0.14310  0.70990  Biso   1.000  N
  N116     1.0000 0.65041  0.18620  0.03770  Biso   1.000  N
  N117     1.0000 0.59472  0.18290  0.97750  Biso   1.000  N
  N118     1.0000 0.56380  0.14480  0.12290  Biso   1.000  N
  N119     1.0000 0.68886  0.35650  0.94380  Biso   1.000  N
  N120     1.0000 0.63760  0.35100  0.87830  Biso   1.000  N
  N121     1.0000 0.65308  0.47530  0.91010  Biso   1.000  N
  N122     1.0000 0.57517  0.29130  0.67050  Biso   1.000  N
  N123     1.0000 0.51409  0.29350  0.62340  Biso   1.000  N
  N124     1.0000 0.59017  0.34910  0.53000  Biso   1.000  N
  N125     1.0000 0.53052  0.12740  0.77390  Biso   1.000  N
  N126     1.0000 0.94160  0.08830  0.72040  Biso   1.000  N
  N127     1.0000 0.92910  0.03830  0.79620  Biso   1.000  N
  N128     1.0000 0.03360  0.08660  0.82030  Biso   1.000  N
  Cd17     1.0000 0.25000  0.25000  0.50000  Biso   1.000  Cd
  Cd18     1.0000 0.75000  0.25000  0.00000  Biso   1.000  Cd
  Cd19     1.0000 0.75000  0.75000  0.50000  Biso   1.000  Cd
  Cd20     1.0000 0.25000  0.75000  0.00000  Biso   1.000  Cd
  Cd21     1.0000 0.00000  0.37603  0.75000  Biso   1.000  Cd
  Cd22     1.0000 0.50000  0.87603  0.75000  Biso   1.000  Cd
  Cd23     1.0000 0.00000  0.62397  0.25000  Biso   1.000  Cd
  Cd24     1.0000 0.50000  0.12397  0.25000  Biso   1.000  Cd
  N129     1.0000 0.00000  0.49410  0.25000  Biso   1.000  N
  N130     1.0000 0.50000  0.99410  0.25000  Biso   1.000  N
  N131     1.0000 0.00000  0.50590  0.75000  Biso   1.000  N
  N132     1.0000 0.50000  0.00590  0.75000  Biso   1.000  N
