data_image0
_cell_length_a       16.9615
_cell_length_b       16.9615
_cell_length_c       16.9615
_cell_angle_alpha    90
_cell_angle_beta     90
_cell_angle_gamma    90

_symmetry_space_group_name_H-M    "P 1"
_symmetry_int_tables_number       1

loop_
  _symmetry_equiv_pos_as_xyz
  'x, y, z'

loop_
  _atom_site_label
  _atom_site_occupancy
  _atom_site_fract_x
  _atom_site_fract_y
  _atom_site_fract_z
  _atom_site_thermal_displace_type
  _atom_site_B_iso_or_equiv
  _atom_site_type_symbol
  N1       1.0000 0.18189  0.90897  0.52666  Biso   1.000  N
  H1       1.0000 0.09270  0.84250  0.37290  Biso   1.000  H
  H2       1.0000 0.04060  0.96150  0.33680  Biso   1.000  H
  H3       1.0000 0.00390  0.93280  0.41660  Biso   1.000  H
  C1       1.0000 0.17797  0.87592  0.60003  Biso   1.000  C
  N2       1.0000 0.68189  0.40897  0.02666  Biso   1.000  N
  H4       1.0000 0.59270  0.34250  0.87290  Biso   1.000  H
  H5       1.0000 0.54060  0.46150  0.83680  Biso   1.000  H
  H6       1.0000 0.50390  0.43280  0.91660  Biso   1.000  H
  C2       1.0000 0.67797  0.37592  0.10003  Biso   1.000  C
  N3       1.0000 0.81811  0.09103  0.52666  Biso   1.000  N
  H7       1.0000 0.90730  0.15750  0.37290  Biso   1.000  H
  H8       1.0000 0.95940  0.03850  0.33680  Biso   1.000  H
  H9       1.0000 0.99610  0.06720  0.41660  Biso   1.000  H
  C3       1.0000 0.82203  0.12408  0.60003  Biso   1.000  C
  N4       1.0000 0.31811  0.59103  0.02666  Biso   1.000  N
  H10      1.0000 0.40730  0.65750  0.87290  Biso   1.000  H
  H11      1.0000 0.45940  0.53850  0.83680  Biso   1.000  H
  H12      1.0000 0.49610  0.56720  0.91660  Biso   1.000  H
  C4       1.0000 0.32203  0.62408  0.10003  Biso   1.000  C
  N5       1.0000 0.81811  0.90897  0.47334  Biso   1.000  N
  H13      1.0000 0.90730  0.84250  0.62710  Biso   1.000  H
  H14      1.0000 0.95940  0.96150  0.66320  Biso   1.000  H
  H15      1.0000 0.99610  0.93280  0.58340  Biso   1.000  H
  C5       1.0000 0.82203  0.87592  0.39997  Biso   1.000  C
  N6       1.0000 0.31811  0.40897  0.97334  Biso   1.000  N
  H16      1.0000 0.40730  0.34250  0.12710  Biso   1.000  H
  H17      1.0000 0.45940  0.46150  0.16320  Biso   1.000  H
  H18      1.0000 0.49610  0.43280  0.08340  Biso   1.000  H
  C6       1.0000 0.32203  0.37592  0.89997  Biso   1.000  C
  N7       1.0000 0.18189  0.09103  0.47334  Biso   1.000  N
  H19      1.0000 0.09270  0.15750  0.62710  Biso   1.000  H
  H20      1.0000 0.04060  0.03850  0.66320  Biso   1.000  H
  H21      1.0000 0.00390  0.06720  0.58340  Biso   1.000  H
  C7       1.0000 0.17797  0.12408  0.39997  Biso   1.000  C
  N8       1.0000 0.68189  0.59103  0.97334  Biso   1.000  N
  H22      1.0000 0.59270  0.65750  0.12710  Biso   1.000  H
  H23      1.0000 0.54060  0.53850  0.16320  Biso   1.000  H
  H24      1.0000 0.50390  0.56720  0.08340  Biso   1.000  H
  C8       1.0000 0.67797  0.62408  0.89997  Biso   1.000  C
  N9       1.0000 0.52666  0.18189  0.90897  Biso   1.000  N
  H25      1.0000 0.37290  0.09270  0.84250  Biso   1.000  H
  H26      1.0000 0.33680  0.04060  0.96150  Biso   1.000  H
  H27      1.0000 0.41660  0.00390  0.93280  Biso   1.000  H
  C9       1.0000 0.60003  0.17797  0.87592  Biso   1.000  C
  N10      1.0000 0.02666  0.68189  0.40897  Biso   1.000  N
  H28      1.0000 0.87290  0.59270  0.34250  Biso   1.000  H
  H29      1.0000 0.83680  0.54060  0.46150  Biso   1.000  H
  H30      1.0000 0.91660  0.50390  0.43280  Biso   1.000  H
  C10      1.0000 0.10003  0.67797  0.37592  Biso   1.000  C
  N11      1.0000 0.52666  0.81811  0.09103  Biso   1.000  N
  H31      1.0000 0.37290  0.90730  0.15750  Biso   1.000  H
  H32      1.0000 0.33680  0.95940  0.03850  Biso   1.000  H
  H33      1.0000 0.41660  0.99610  0.06720  Biso   1.000  H
  C11      1.0000 0.60003  0.82203  0.12408  Biso   1.000  C
  N12      1.0000 0.02666  0.31811  0.59103  Biso   1.000  N
  H34      1.0000 0.87290  0.40730  0.65750  Biso   1.000  H
  H35      1.0000 0.83680  0.45940  0.53850  Biso   1.000  H
  H36      1.0000 0.91660  0.49610  0.56720  Biso   1.000  H
  C12      1.0000 0.10003  0.32203  0.62408  Biso   1.000  C
  N13      1.0000 0.47334  0.81811  0.90897  Biso   1.000  N
  H37      1.0000 0.62710  0.90730  0.84250  Biso   1.000  H
  H38      1.0000 0.66320  0.95940  0.96150  Biso   1.000  H
  H39      1.0000 0.58340  0.99610  0.93280  Biso   1.000  H
  C13      1.0000 0.39997  0.82203  0.87592  Biso   1.000  C
  N14      1.0000 0.97334  0.31811  0.40897  Biso   1.000  N
  H40      1.0000 0.12710  0.40730  0.34250  Biso   1.000  H
  H41      1.0000 0.16320  0.45940  0.46150  Biso   1.000  H
  H42      1.0000 0.08340  0.49610  0.43280  Biso   1.000  H
  C14      1.0000 0.89997  0.32203  0.37592  Biso   1.000  C
  N15      1.0000 0.47334  0.18189  0.09103  Biso   1.000  N
  H43      1.0000 0.62710  0.09270  0.15750  Biso   1.000  H
  H44      1.0000 0.66320  0.04060  0.03850  Biso   1.000  H
  H45      1.0000 0.58340  0.00390  0.06720  Biso   1.000  H
  C15      1.0000 0.39997  0.17797  0.12408  Biso   1.000  C
  N16      1.0000 0.97334  0.68189  0.59103  Biso   1.000  N
  H46      1.0000 0.12710  0.59270  0.65750  Biso   1.000  H
  H47      1.0000 0.16320  0.54060  0.53850  Biso   1.000  H
  H48      1.0000 0.08340  0.50390  0.56720  Biso   1.000  H
  C16      1.0000 0.89997  0.67797  0.62408  Biso   1.000  C
  N17      1.0000 0.90897  0.52666  0.18189  Biso   1.000  N
  H49      1.0000 0.84250  0.37290  0.09270  Biso   1.000  H
  H50      1.0000 0.96150  0.33680  0.04060  Biso   1.000  H
  H51      1.0000 0.93280  0.41660  0.00390  Biso   1.000  H
  C17      1.0000 0.87592  0.60003  0.17797  Biso   1.000  C
  N18      1.0000 0.40897  0.02666  0.68189  Biso   1.000  N
  H52      1.0000 0.34250  0.87290  0.59270  Biso   1.000  H
  H53      1.0000 0.46150  0.83680  0.54060  Biso   1.000  H
  H54      1.0000 0.43280  0.91660  0.50390  Biso   1.000  H
  C18      1.0000 0.37592  0.10003  0.67797  Biso   1.000  C
  N19      1.0000 0.09103  0.52666  0.81811  Biso   1.000  N
  H55      1.0000 0.15750  0.37290  0.90730  Biso   1.000  H
  H56      1.0000 0.03850  0.33680  0.95940  Biso   1.000  H
  H57      1.0000 0.06720  0.41660  0.99610  Biso   1.000  H
  C19      1.0000 0.12408  0.60003  0.82203  Biso   1.000  C
  N20      1.0000 0.59103  0.02666  0.31811  Biso   1.000  N
  H58      1.0000 0.65750  0.87290  0.40730  Biso   1.000  H
  H59      1.0000 0.53850  0.83680  0.45940  Biso   1.000  H
  H60      1.0000 0.56720  0.91660  0.49610  Biso   1.000  H
  C20      1.0000 0.62408  0.10003  0.32203  Biso   1.000  C
  N21      1.0000 0.90897  0.47334  0.81811  Biso   1.000  N
  H61      1.0000 0.84250  0.62710  0.90730  Biso   1.000  H
  H62      1.0000 0.96150  0.66320  0.95940  Biso   1.000  H
  H63      1.0000 0.93280  0.58340  0.99610  Biso   1.000  H
  C21      1.0000 0.87592  0.39997  0.82203  Biso   1.000  C
  N22      1.0000 0.40897  0.97334  0.31811  Biso   1.000  N
  H64      1.0000 0.34250  0.12710  0.40730  Biso   1.000  H
  H65      1.0000 0.46150  0.16320  0.45940  Biso   1.000  H
  H66      1.0000 0.43280  0.08340  0.49610  Biso   1.000  H
  C22      1.0000 0.37592  0.89997  0.32203  Biso   1.000  C
  N23      1.0000 0.09103  0.47334  0.18189  Biso   1.000  N
  H67      1.0000 0.15750  0.62710  0.09270  Biso   1.000  H
  H68      1.0000 0.03850  0.66320  0.04060  Biso   1.000  H
  H69      1.0000 0.06720  0.58340  0.00390  Biso   1.000  H
  C23      1.0000 0.12408  0.39997  0.17797  Biso   1.000  C
  N24      1.0000 0.59103  0.97334  0.68189  Biso   1.000  N
  H70      1.0000 0.65750  0.12710  0.59270  Biso   1.000  H
  H71      1.0000 0.53850  0.16320  0.54060  Biso   1.000  H
  H72      1.0000 0.56720  0.08340  0.50390  Biso   1.000  H
  C24      1.0000 0.62408  0.89997  0.67797  Biso   1.000  C
  N25      1.0000 0.90897  0.18189  0.52666  Biso   1.000  N
  H73      1.0000 0.84250  0.09270  0.37290  Biso   1.000  H
  H74      1.0000 0.96150  0.04060  0.33680  Biso   1.000  H
  H75      1.0000 0.93280  0.00390  0.41660  Biso   1.000  H
  C25      1.0000 0.87592  0.17797  0.60003  Biso   1.000  C
  N26      1.0000 0.40897  0.68189  0.02666  Biso   1.000  N
  H76      1.0000 0.34250  0.59270  0.87290  Biso   1.000  H
  H77      1.0000 0.46150  0.54060  0.83680  Biso   1.000  H
  H78      1.0000 0.43280  0.50390  0.91660  Biso   1.000  H
  C26      1.0000 0.37592  0.67797  0.10003  Biso   1.000  C
  N27      1.0000 0.09103  0.81811  0.52666  Biso   1.000  N
  H79      1.0000 0.15750  0.90730  0.37290  Biso   1.000  H
  H80      1.0000 0.03850  0.95940  0.33680  Biso   1.000  H
  H81      1.0000 0.06720  0.99610  0.41660  Biso   1.000  H
  C27      1.0000 0.12408  0.82203  0.60003  Biso   1.000  C
  N28      1.0000 0.59103  0.31811  0.02666  Biso   1.000  N
  H82      1.0000 0.65750  0.40730  0.87290  Biso   1.000  H
  H83      1.0000 0.53850  0.45940  0.83680  Biso   1.000  H
  H84      1.0000 0.56720  0.49610  0.91660  Biso   1.000  H
  C28      1.0000 0.62408  0.32203  0.10003  Biso   1.000  C
  N29      1.0000 0.90897  0.81811  0.47334  Biso   1.000  N
  H85      1.0000 0.84250  0.90730  0.62710  Biso   1.000  H
  H86      1.0000 0.96150  0.95940  0.66320  Biso   1.000  H
  H87      1.0000 0.93280  0.99610  0.58340  Biso   1.000  H
  C29      1.0000 0.87592  0.82203  0.39997  Biso   1.000  C
  N30      1.0000 0.40897  0.31811  0.97334  Biso   1.000  N
  H88      1.0000 0.34250  0.40730  0.12710  Biso   1.000  H
  H89      1.0000 0.46150  0.45940  0.16320  Biso   1.000  H
  H90      1.0000 0.43280  0.49610  0.08340  Biso   1.000  H
  C30      1.0000 0.37592  0.32203  0.89997  Biso   1.000  C
  N31      1.0000 0.09103  0.18189  0.47334  Biso   1.000  N
  H91      1.0000 0.15750  0.09270  0.62710  Biso   1.000  H
  H92      1.0000 0.03850  0.04060  0.66320  Biso   1.000  H
  H93      1.0000 0.06720  0.00390  0.58340  Biso   1.000  H
  C31      1.0000 0.12408  0.17797  0.39997  Biso   1.000  C
  N32      1.0000 0.59103  0.68189  0.97334  Biso   1.000  N
  H94      1.0000 0.65750  0.59270  0.12710  Biso   1.000  H
  H95      1.0000 0.53850  0.54060  0.16320  Biso   1.000  H
  H96      1.0000 0.56720  0.50390  0.08340  Biso   1.000  H
  C32      1.0000 0.62408  0.67797  0.89997  Biso   1.000  C
  N33      1.0000 0.18189  0.52666  0.90897  Biso   1.000  N
  H97      1.0000 0.09270  0.37290  0.84250  Biso   1.000  H
  H98      1.0000 0.04060  0.33680  0.96150  Biso   1.000  H
  H99      1.0000 0.00390  0.41660  0.93280  Biso   1.000  H
  C33      1.0000 0.17797  0.60003  0.87592  Biso   1.000  C
  N34      1.0000 0.68189  0.02666  0.40897  Biso   1.000  N
  H100     1.0000 0.59270  0.87290  0.34250  Biso   1.000  H
  H101     1.0000 0.54060  0.83680  0.46150  Biso   1.000  H
  H102     1.0000 0.50390  0.91660  0.43280  Biso   1.000  H
  C34      1.0000 0.67797  0.10003  0.37592  Biso   1.000  C
  N35      1.0000 0.81811  0.52666  0.09103  Biso   1.000  N
  H103     1.0000 0.90730  0.37290  0.15750  Biso   1.000  H
  H104     1.0000 0.95940  0.33680  0.03850  Biso   1.000  H
  H105     1.0000 0.99610  0.41660  0.06720  Biso   1.000  H
  C35      1.0000 0.82203  0.60003  0.12408  Biso   1.000  C
  N36      1.0000 0.31811  0.02666  0.59103  Biso   1.000  N
  H106     1.0000 0.40730  0.87290  0.65750  Biso   1.000  H
  H107     1.0000 0.45940  0.83680  0.53850  Biso   1.000  H
  H108     1.0000 0.49610  0.91660  0.56720  Biso   1.000  H
  C36      1.0000 0.32203  0.10003  0.62408  Biso   1.000  C
  N37      1.0000 0.81811  0.47334  0.90897  Biso   1.000  N
  H109     1.0000 0.90730  0.62710  0.84250  Biso   1.000  H
  H110     1.0000 0.95940  0.66320  0.96150  Biso   1.000  H
  H111     1.0000 0.99610  0.58340  0.93280  Biso   1.000  H
  C37      1.0000 0.82203  0.39997  0.87592  Biso   1.000  C
  N38      1.0000 0.31811  0.97334  0.40897  Biso   1.000  N
  H112     1.0000 0.40730  0.12710  0.34250  Biso   1.000  H
  H113     1.0000 0.45940  0.16320  0.46150  Biso   1.000  H
  H114     1.0000 0.49610  0.08340  0.43280  Biso   1.000  H
  C38      1.0000 0.32203  0.89997  0.37592  Biso   1.000  C
  N39      1.0000 0.18189  0.47334  0.09103  Biso   1.000  N
  H115     1.0000 0.09270  0.62710  0.15750  Biso   1.000  H
  H116     1.0000 0.04060  0.66320  0.03850  Biso   1.000  H
  H117     1.0000 0.00390  0.58340  0.06720  Biso   1.000  H
  C39      1.0000 0.17797  0.39997  0.12408  Biso   1.000  C
  N40      1.0000 0.68189  0.97334  0.59103  Biso   1.000  N
  H118     1.0000 0.59270  0.12710  0.65750  Biso   1.000  H
  H119     1.0000 0.54060  0.16320  0.53850  Biso   1.000  H
  H120     1.0000 0.50390  0.08340  0.56720  Biso   1.000  H
  C40      1.0000 0.67797  0.89997  0.62408  Biso   1.000  C
  N41      1.0000 0.52666  0.90897  0.18189  Biso   1.000  N
  H121     1.0000 0.37290  0.84250  0.09270  Biso   1.000  H
  H122     1.0000 0.33680  0.96150  0.04060  Biso   1.000  H
  H123     1.0000 0.41660  0.93280  0.00390  Biso   1.000  H
  C41      1.0000 0.60003  0.87592  0.17797  Biso   1.000  C
  N42      1.0000 0.02666  0.40897  0.68189  Biso   1.000  N
  H124     1.0000 0.87290  0.34250  0.59270  Biso   1.000  H
  H125     1.0000 0.83680  0.46150  0.54060  Biso   1.000  H
  H126     1.0000 0.91660  0.43280  0.50390  Biso   1.000  H
  C42      1.0000 0.10003  0.37592  0.67797  Biso   1.000  C
  N43      1.0000 0.52666  0.09103  0.81811  Biso   1.000  N
  H127     1.0000 0.37290  0.15750  0.90730  Biso   1.000  H
  H128     1.0000 0.33680  0.03850  0.95940  Biso   1.000  H
  H129     1.0000 0.41660  0.06720  0.99610  Biso   1.000  H
  C43      1.0000 0.60003  0.12408  0.82203  Biso   1.000  C
  N44      1.0000 0.02666  0.59103  0.31811  Biso   1.000  N
  H130     1.0000 0.87290  0.65750  0.40730  Biso   1.000  H
  H131     1.0000 0.83680  0.53850  0.45940  Biso   1.000  H
  H132     1.0000 0.91660  0.56720  0.49610  Biso   1.000  H
  C44      1.0000 0.10003  0.62408  0.32203  Biso   1.000  C
  N45      1.0000 0.47334  0.90897  0.81811  Biso   1.000  N
  H133     1.0000 0.62710  0.84250  0.90730  Biso   1.000  H
  H134     1.0000 0.66320  0.96150  0.95940  Biso   1.000  H
  H135     1.0000 0.58340  0.93280  0.99610  Biso   1.000  H
  C45      1.0000 0.39997  0.87592  0.82203  Biso   1.000  C
  N46      1.0000 0.97334  0.40897  0.31811  Biso   1.000  N
  H136     1.0000 0.12710  0.34250  0.40730  Biso   1.000  H
  H137     1.0000 0.16320  0.46150  0.45940  Biso   1.000  H
  H138     1.0000 0.08340  0.43280  0.49610  Biso   1.000  H
  C46      1.0000 0.89997  0.37592  0.32203  Biso   1.000  C
  N47      1.0000 0.47334  0.09103  0.18189  Biso   1.000  N
  H139     1.0000 0.62710  0.15750  0.09270  Biso   1.000  H
  H140     1.0000 0.66320  0.03850  0.04060  Biso   1.000  H
  H141     1.0000 0.58340  0.06720  0.00390  Biso   1.000  H
  C47      1.0000 0.39997  0.12408  0.17797  Biso   1.000  C
  N48      1.0000 0.97334  0.59103  0.68189  Biso   1.000  N
  H142     1.0000 0.12710  0.65750  0.59270  Biso   1.000  H
  H143     1.0000 0.16320  0.53850  0.54060  Biso   1.000  H
  H144     1.0000 0.08340  0.56720  0.50390  Biso   1.000  H
  C48      1.0000 0.89997  0.62408  0.67797  Biso   1.000  C
  Zn1      1.0000 0.25000  0.00000  0.50000  Biso   1.000  Zn
  Zn2      1.0000 0.75000  0.00000  0.50000  Biso   1.000  Zn
  Zn3      1.0000 0.50000  0.25000  0.00000  Biso   1.000  Zn
  Zn4      1.0000 0.50000  0.75000  0.00000  Biso   1.000  Zn
  Zn5      1.0000 0.00000  0.50000  0.25000  Biso   1.000  Zn
  Zn6      1.0000 0.00000  0.50000  0.75000  Biso   1.000  Zn
  Zn7      1.0000 0.00000  0.25000  0.50000  Biso   1.000  Zn
  Zn8      1.0000 0.00000  0.75000  0.50000  Biso   1.000  Zn
  Zn9      1.0000 0.25000  0.50000  0.00000  Biso   1.000  Zn
  Zn10     1.0000 0.75000  0.50000  0.00000  Biso   1.000  Zn
  Zn11     1.0000 0.50000  0.00000  0.25000  Biso   1.000  Zn
  Zn12     1.0000 0.50000  0.00000  0.75000  Biso   1.000  Zn
  C49      1.0000 0.12748  0.87252  0.48510  Biso   1.000  C
  C50      1.0000 0.11030  0.88970  0.39870  Biso   1.000  C
  C51      1.0000 0.05120  0.94880  0.39140  Biso   1.000  C
  C52      1.0000 0.62748  0.37252  0.98510  Biso   1.000  C
  C53      1.0000 0.61030  0.38970  0.89870  Biso   1.000  C
  C54      1.0000 0.55120  0.44880  0.89140  Biso   1.000  C
  C55      1.0000 0.87252  0.12748  0.48510  Biso   1.000  C
  C56      1.0000 0.88970  0.11030  0.39870  Biso   1.000  C
  C57      1.0000 0.94880  0.05120  0.39140  Biso   1.000  C
  C58      1.0000 0.37252  0.62748  0.98510  Biso   1.000  C
  C59      1.0000 0.38970  0.61030  0.89870  Biso   1.000  C
  C60      1.0000 0.44880  0.55120  0.89140  Biso   1.000  C
  C61      1.0000 0.87252  0.87252  0.51490  Biso   1.000  C
  C62      1.0000 0.88970  0.88970  0.60130  Biso   1.000  C
  C63      1.0000 0.94880  0.94880  0.60860  Biso   1.000  C
  C64      1.0000 0.37252  0.37252  0.01490  Biso   1.000  C
  C65      1.0000 0.38970  0.38970  0.10130  Biso   1.000  C
  C66      1.0000 0.44880  0.44880  0.10860  Biso   1.000  C
  C67      1.0000 0.12748  0.12748  0.51490  Biso   1.000  C
  C68      1.0000 0.11030  0.11030  0.60130  Biso   1.000  C
  C69      1.0000 0.05120  0.05120  0.60860  Biso   1.000  C
  C70      1.0000 0.62748  0.62748  0.01490  Biso   1.000  C
  C71      1.0000 0.61030  0.61030  0.10130  Biso   1.000  C
  C72      1.0000 0.55120  0.55120  0.10860  Biso   1.000  C
  C73      1.0000 0.48510  0.12748  0.87252  Biso   1.000  C
  C74      1.0000 0.39870  0.11030  0.88970  Biso   1.000  C
  C75      1.0000 0.39140  0.05120  0.94880  Biso   1.000  C
  C76      1.0000 0.98510  0.62748  0.37252  Biso   1.000  C
  C77      1.0000 0.89870  0.61030  0.38970  Biso   1.000  C
  C78      1.0000 0.89140  0.55120  0.44880  Biso   1.000  C
  C79      1.0000 0.48510  0.87252  0.12748  Biso   1.000  C
  C80      1.0000 0.39870  0.88970  0.11030  Biso   1.000  C
  C81      1.0000 0.39140  0.94880  0.05120  Biso   1.000  C
  C82      1.0000 0.98510  0.37252  0.62748  Biso   1.000  C
  C83      1.0000 0.89870  0.38970  0.61030  Biso   1.000  C
  C84      1.0000 0.89140  0.44880  0.55120  Biso   1.000  C
  C85      1.0000 0.51490  0.87252  0.87252  Biso   1.000  C
  C86      1.0000 0.60130  0.88970  0.88970  Biso   1.000  C
  C87      1.0000 0.60860  0.94880  0.94880  Biso   1.000  C
  C88      1.0000 0.01490  0.37252  0.37252  Biso   1.000  C
  C89      1.0000 0.10130  0.38970  0.38970  Biso   1.000  C
  C90      1.0000 0.10860  0.44880  0.44880  Biso   1.000  C
  C91      1.0000 0.51490  0.12748  0.12748  Biso   1.000  C
  C92      1.0000 0.60130  0.11030  0.11030  Biso   1.000  C
  C93      1.0000 0.60860  0.05120  0.05120  Biso   1.000  C
  C94      1.0000 0.01490  0.62748  0.62748  Biso   1.000  C
  C95      1.0000 0.10130  0.61030  0.61030  Biso   1.000  C
  C96      1.0000 0.10860  0.55120  0.55120  Biso   1.000  C
  C97      1.0000 0.87252  0.48510  0.12748  Biso   1.000  C
  C98      1.0000 0.88970  0.39870  0.11030  Biso   1.000  C
  C99      1.0000 0.94880  0.39140  0.05120  Biso   1.000  C
  C100     1.0000 0.37252  0.98510  0.62748  Biso   1.000  C
  C101     1.0000 0.38970  0.89870  0.61030  Biso   1.000  C
  C102     1.0000 0.44880  0.89140  0.55120  Biso   1.000  C
  C103     1.0000 0.12748  0.48510  0.87252  Biso   1.000  C
  C104     1.0000 0.11030  0.39870  0.88970  Biso   1.000  C
  C105     1.0000 0.05120  0.39140  0.94880  Biso   1.000  C
  C106     1.0000 0.62748  0.98510  0.37252  Biso   1.000  C
  C107     1.0000 0.61030  0.89870  0.38970  Biso   1.000  C
  C108     1.0000 0.55120  0.89140  0.44880  Biso   1.000  C
  C109     1.0000 0.87252  0.51490  0.87252  Biso   1.000  C
  C110     1.0000 0.88970  0.60130  0.88970  Biso   1.000  C
  C111     1.0000 0.94880  0.60860  0.94880  Biso   1.000  C
  C112     1.0000 0.37252  0.01490  0.37252  Biso   1.000  C
  C113     1.0000 0.38970  0.10130  0.38970  Biso   1.000  C
  C114     1.0000 0.44880  0.10860  0.44880  Biso   1.000  C
  C115     1.0000 0.12748  0.51490  0.12748  Biso   1.000  C
  C116     1.0000 0.11030  0.60130  0.11030  Biso   1.000  C
  C117     1.0000 0.05120  0.60860  0.05120  Biso   1.000  C
  C118     1.0000 0.62748  0.01490  0.62748  Biso   1.000  C
  C119     1.0000 0.61030  0.10130  0.61030  Biso   1.000  C
  C120     1.0000 0.55120  0.10860  0.55120  Biso   1.000  C
