data_image0
_cell_length_a       20.0034
_cell_length_b       20.2188
_cell_length_c       20.9731
_cell_angle_alpha    90
_cell_angle_beta     90
_cell_angle_gamma    90

_symmetry_space_group_name_H-M    "P 1"
_symmetry_int_tables_number       1

loop_
  _symmetry_equiv_pos_as_xyz
  'x, y, z'

loop_
  _atom_site_label
  _atom_site_occupancy
  _atom_site_fract_x
  _atom_site_fract_y
  _atom_site_fract_z
  _atom_site_thermal_displace_type
  _atom_site_B_iso_or_equiv
  _atom_site_type_symbol
  Be1      1.0000 0.59820  0.49290  0.63710  Biso   1.000  Be
  Be2      1.0000 0.54310  0.29360  0.62110  Biso   1.000  Be
  Be3      1.0000 0.36930  0.36280  0.55020  Biso   1.000  Be
  Be4      1.0000 0.18020  0.40950  0.48990  Biso   1.000  Be
  Be5      1.0000 0.13880  0.43900  0.67940  Biso   1.000  Be
  Be6      1.0000 0.04970  0.61080  0.62630  Biso   1.000  Be
  P1       1.0000 0.63286  0.36973  0.70394  Biso   1.000  P
  H1       1.0000 0.69410  0.34570  0.71370  Biso   1.000  H
  P2       1.0000 0.50339  0.41899  0.56226  Biso   1.000  P
  H2       1.0000 0.51920  0.43170  0.49450  Biso   1.000  H
  P3       1.0000 0.40938  0.25026  0.62333  Biso   1.000  P
  H3       1.0000 0.36330  0.26140  0.66420  Biso   1.000  H
  P4       1.0000 0.31267  0.41712  0.43430  Biso   1.000  P
  H4       1.0000 0.30170  0.38720  0.38230  Biso   1.000  H
  P5       1.0000 0.23799  0.36396  0.60771  Biso   1.000  P
  H5       1.0000 0.23950  0.30160  0.63550  Biso   1.000  H
  P6       1.0000 0.08055  0.48376  0.56331  Biso   1.000  P
  H6       1.0000 0.02220  0.45750  0.53650  Biso   1.000  H
  P7       1.0000 0.11249  0.56223  0.74204  Biso   1.000  P
  H7       1.0000 0.15240  0.61260  0.75270  Biso   1.000  H
  P8       1.0000 0.92854  0.65773  0.57157  Biso   1.000  P
  H8       1.0000 0.95660  0.64840  0.52090  Biso   1.000  H
  O1       1.0000 0.60455  0.38764  0.76922  Biso   1.000  O
  O2       1.0000 0.59491  0.31141  0.67760  Biso   1.000  O
  O3       1.0000 0.63947  0.42824  0.66052  Biso   1.000  O
  O4       1.0000 0.52648  0.47162  0.60793  Biso   1.000  O
  O5       1.0000 0.47168  0.27748  0.65453  Biso   1.000  O
  O6       1.0000 0.39043  0.28720  0.56320  Biso   1.000  O
  O7       1.0000 0.53748  0.35302  0.56989  Biso   1.000  O
  O8       1.0000 0.42807  0.41560  0.56540  Biso   1.000  O
  O9       1.0000 0.30967  0.38408  0.59782  Biso   1.000  O
  O10      1.0000 0.34553  0.36612  0.47632  Biso   1.000  O
  O11      1.0000 0.35714  0.47429  0.41898  Biso   1.000  O
  O12      1.0000 0.24695  0.44195  0.46009  Biso   1.000  O
  O13      1.0000 0.19757  0.35799  0.54736  Biso   1.000  O
  O14      1.0000 0.20865  0.40870  0.65724  Biso   1.000  O
  O15      1.0000 0.13441  0.46990  0.51515  Biso   1.000  O
  O16      1.0000 0.08481  0.44201  0.62282  Biso   1.000  O
  O17      1.0000 0.15474  0.50904  0.71185  Biso   1.000  O
  O18      1.0000 0.08364  0.54396  0.80594  Biso   1.000  O
  O19      1.0000 0.07713  0.55685  0.57591  Biso   1.000  O
  O20      1.0000 0.05743  0.58768  0.69956  Biso   1.000  O
  O21      1.0000 0.41118  0.17743  0.61014  Biso   1.000  O
  O22      1.0000 0.96861  0.61869  0.61815  Biso   1.000  O
  O23      1.0000 0.85772  0.63135  0.56605  Biso   1.000  O
  O24      1.0000 0.92842  0.73093  0.58221  Biso   1.000  O
  P9       1.0000 0.90950  0.66210  0.60310  Biso   1.000  P
  Be7      1.0000 0.90180  0.50710  0.13710  Biso   1.000  Be
  Be8      1.0000 0.95690  0.70640  0.12110  Biso   1.000  Be
  Be9      1.0000 0.13070  0.63720  0.05020  Biso   1.000  Be
  Be10     1.0000 0.31980  0.59050  0.98990  Biso   1.000  Be
  Be11     1.0000 0.36120  0.56100  0.17940  Biso   1.000  Be
  Be12     1.0000 0.45030  0.38920  0.12630  Biso   1.000  Be
  P10      1.0000 0.86714  0.63027  0.20394  Biso   1.000  P
  H9       1.0000 0.80590  0.65430  0.21370  Biso   1.000  H
  P11      1.0000 0.99661  0.58101  0.06226  Biso   1.000  P
  H10      1.0000 0.98080  0.56830  0.99450  Biso   1.000  H
  P12      1.0000 0.09062  0.74974  0.12333  Biso   1.000  P
  H11      1.0000 0.13670  0.73860  0.16420  Biso   1.000  H
  P13      1.0000 0.18733  0.58288  0.93430  Biso   1.000  P
  H12      1.0000 0.19830  0.61280  0.88230  Biso   1.000  H
  P14      1.0000 0.26201  0.63604  0.10771  Biso   1.000  P
  H13      1.0000 0.26050  0.69840  0.13550  Biso   1.000  H
  P15      1.0000 0.41945  0.51624  0.06331  Biso   1.000  P
  H14      1.0000 0.47780  0.54250  0.03650  Biso   1.000  H
  P16      1.0000 0.38751  0.43777  0.24204  Biso   1.000  P
  H15      1.0000 0.34760  0.38740  0.25270  Biso   1.000  H
  P17      1.0000 0.57146  0.34227  0.07157  Biso   1.000  P
  H16      1.0000 0.54340  0.35160  0.02090  Biso   1.000  H
  O25      1.0000 0.89545  0.61236  0.26922  Biso   1.000  O
  O26      1.0000 0.90509  0.68859  0.17760  Biso   1.000  O
  O27      1.0000 0.86053  0.57176  0.16052  Biso   1.000  O
  O28      1.0000 0.97352  0.52838  0.10793  Biso   1.000  O
  O29      1.0000 0.02832  0.72252  0.15453  Biso   1.000  O
  O30      1.0000 0.10957  0.71280  0.06320  Biso   1.000  O
  O31      1.0000 0.96252  0.64698  0.06989  Biso   1.000  O
  O32      1.0000 0.07193  0.58440  0.06540  Biso   1.000  O
  O33      1.0000 0.19033  0.61592  0.09782  Biso   1.000  O
  O34      1.0000 0.15447  0.63388  0.97632  Biso   1.000  O
  O35      1.0000 0.14286  0.52571  0.91898  Biso   1.000  O
  O36      1.0000 0.25305  0.55805  0.96009  Biso   1.000  O
  O37      1.0000 0.30243  0.64201  0.04736  Biso   1.000  O
  O38      1.0000 0.29135  0.59130  0.15724  Biso   1.000  O
  O39      1.0000 0.36559  0.53010  0.01515  Biso   1.000  O
  O40      1.0000 0.41519  0.55799  0.12282  Biso   1.000  O
  O41      1.0000 0.34526  0.49096  0.21185  Biso   1.000  O
  O42      1.0000 0.41636  0.45604  0.30594  Biso   1.000  O
  O43      1.0000 0.42287  0.44315  0.07591  Biso   1.000  O
  O44      1.0000 0.44257  0.41232  0.19956  Biso   1.000  O
  O45      1.0000 0.08882  0.82257  0.11014  Biso   1.000  O
  O46      1.0000 0.53139  0.38131  0.11815  Biso   1.000  O
  O47      1.0000 0.64228  0.36865  0.06605  Biso   1.000  O
  O48      1.0000 0.57158  0.26907  0.08221  Biso   1.000  O
  P18      1.0000 0.59050  0.33790  0.10310  Biso   1.000  P
  Be13     1.0000 0.40180  0.99290  0.86290  Biso   1.000  Be
  Be14     1.0000 0.45690  0.79360  0.87890  Biso   1.000  Be
  Be15     1.0000 0.63070  0.86280  0.94980  Biso   1.000  Be
  Be16     1.0000 0.81980  0.90950  0.01010  Biso   1.000  Be
  Be17     1.0000 0.86120  0.93900  0.82060  Biso   1.000  Be
  Be18     1.0000 0.95030  0.11080  0.87370  Biso   1.000  Be
  P19      1.0000 0.36714  0.86973  0.79606  Biso   1.000  P
  H17      1.0000 0.30590  0.84570  0.78630  Biso   1.000  H
  P20      1.0000 0.49661  0.91899  0.93774  Biso   1.000  P
  H18      1.0000 0.48080  0.93170  0.00550  Biso   1.000  H
  P21      1.0000 0.59062  0.75026  0.87667  Biso   1.000  P
  H19      1.0000 0.63670  0.76140  0.83580  Biso   1.000  H
  P22      1.0000 0.68733  0.91712  0.06570  Biso   1.000  P
  H20      1.0000 0.69830  0.88720  0.11770  Biso   1.000  H
  P23      1.0000 0.76201  0.86396  0.89229  Biso   1.000  P
  H21      1.0000 0.76050  0.80160  0.86450  Biso   1.000  H
  P24      1.0000 0.91945  0.98376  0.93669  Biso   1.000  P
  H22      1.0000 0.97780  0.95750  0.96350  Biso   1.000  H
  P25      1.0000 0.88751  0.06223  0.75796  Biso   1.000  P
  H23      1.0000 0.84760  0.11260  0.74730  Biso   1.000  H
  P26      1.0000 0.07146  0.15773  0.92843  Biso   1.000  P
  H24      1.0000 0.04340  0.14840  0.97910  Biso   1.000  H
  O49      1.0000 0.39545  0.88764  0.73078  Biso   1.000  O
  O50      1.0000 0.40509  0.81141  0.82240  Biso   1.000  O
  O51      1.0000 0.36053  0.92824  0.83948  Biso   1.000  O
  O52      1.0000 0.47352  0.97162  0.89207  Biso   1.000  O
  O53      1.0000 0.52832  0.77748  0.84547  Biso   1.000  O
  O54      1.0000 0.60957  0.78720  0.93680  Biso   1.000  O
  O55      1.0000 0.46252  0.85302  0.93011  Biso   1.000  O
  O56      1.0000 0.57193  0.91560  0.93460  Biso   1.000  O
  O57      1.0000 0.69033  0.88408  0.90218  Biso   1.000  O
  O58      1.0000 0.65447  0.86612  0.02368  Biso   1.000  O
  O59      1.0000 0.64286  0.97429  0.08102  Biso   1.000  O
  O60      1.0000 0.75305  0.94195  0.03991  Biso   1.000  O
  O61      1.0000 0.80243  0.85799  0.95264  Biso   1.000  O
  O62      1.0000 0.79135  0.90870  0.84276  Biso   1.000  O
  O63      1.0000 0.86559  0.96990  0.98485  Biso   1.000  O
  O64      1.0000 0.91519  0.94201  0.87718  Biso   1.000  O
  O65      1.0000 0.84526  0.00904  0.78815  Biso   1.000  O
  O66      1.0000 0.91636  0.04396  0.69406  Biso   1.000  O
  O67      1.0000 0.92287  0.05685  0.92409  Biso   1.000  O
  O68      1.0000 0.94257  0.08768  0.80044  Biso   1.000  O
  O69      1.0000 0.58882  0.67743  0.88986  Biso   1.000  O
  O70      1.0000 0.03139  0.11869  0.88185  Biso   1.000  O
  O71      1.0000 0.14228  0.13135  0.93395  Biso   1.000  O
  O72      1.0000 0.07158  0.23093  0.91779  Biso   1.000  O
  P27      1.0000 0.09050  0.16210  0.89690  Biso   1.000  P
  Be19     1.0000 0.09820  0.00710  0.36290  Biso   1.000  Be
  Be20     1.0000 0.04310  0.20640  0.37890  Biso   1.000  Be
  Be21     1.0000 0.86930  0.13720  0.44980  Biso   1.000  Be
  Be22     1.0000 0.68020  0.09050  0.51010  Biso   1.000  Be
  Be23     1.0000 0.63880  0.06100  0.32060  Biso   1.000  Be
  Be24     1.0000 0.54970  0.88920  0.37370  Biso   1.000  Be
  P28      1.0000 0.13286  0.13027  0.29606  Biso   1.000  P
  H25      1.0000 0.19410  0.15430  0.28630  Biso   1.000  H
  P29      1.0000 0.00339  0.08101  0.43774  Biso   1.000  P
  H26      1.0000 0.01920  0.06830  0.50550  Biso   1.000  H
  P30      1.0000 0.90938  0.24974  0.37667  Biso   1.000  P
  H27      1.0000 0.86330  0.23860  0.33580  Biso   1.000  H
  P31      1.0000 0.81267  0.08288  0.56570  Biso   1.000  P
  H28      1.0000 0.80170  0.11280  0.61770  Biso   1.000  H
  P32      1.0000 0.73799  0.13604  0.39229  Biso   1.000  P
  H29      1.0000 0.73950  0.19840  0.36450  Biso   1.000  H
  P33      1.0000 0.58055  0.01624  0.43669  Biso   1.000  P
  H30      1.0000 0.52220  0.04250  0.46350  Biso   1.000  H
  P34      1.0000 0.61249  0.93777  0.25796  Biso   1.000  P
  H31      1.0000 0.65240  0.88740  0.24730  Biso   1.000  H
  P35      1.0000 0.42854  0.84227  0.42843  Biso   1.000  P
  H32      1.0000 0.45660  0.85160  0.47910  Biso   1.000  H
  O73      1.0000 0.10455  0.11236  0.23078  Biso   1.000  O
  O74      1.0000 0.09491  0.18859  0.32240  Biso   1.000  O
  O75      1.0000 0.13947  0.07176  0.33948  Biso   1.000  O
  O76      1.0000 0.02648  0.02838  0.39207  Biso   1.000  O
  O77      1.0000 0.97168  0.22252  0.34547  Biso   1.000  O
  O78      1.0000 0.89043  0.21280  0.43680  Biso   1.000  O
  O79      1.0000 0.03748  0.14698  0.43011  Biso   1.000  O
  O80      1.0000 0.92807  0.08440  0.43460  Biso   1.000  O
  O81      1.0000 0.80967  0.11592  0.40218  Biso   1.000  O
  O82      1.0000 0.84553  0.13388  0.52368  Biso   1.000  O
  O83      1.0000 0.85714  0.02571  0.58102  Biso   1.000  O
  O84      1.0000 0.74695  0.05805  0.53991  Biso   1.000  O
  O85      1.0000 0.69757  0.14201  0.45264  Biso   1.000  O
  O86      1.0000 0.70865  0.09130  0.34276  Biso   1.000  O
  O87      1.0000 0.63441  0.03010  0.48485  Biso   1.000  O
  O88      1.0000 0.58481  0.05799  0.37718  Biso   1.000  O
  O89      1.0000 0.65474  0.99096  0.28815  Biso   1.000  O
  O90      1.0000 0.58364  0.95604  0.19406  Biso   1.000  O
  O91      1.0000 0.57713  0.94315  0.42409  Biso   1.000  O
  O92      1.0000 0.55743  0.91232  0.30044  Biso   1.000  O
  O93      1.0000 0.91118  0.32257  0.38986  Biso   1.000  O
  O94      1.0000 0.46861  0.88131  0.38185  Biso   1.000  O
  O95      1.0000 0.35772  0.86865  0.43395  Biso   1.000  O
  O96      1.0000 0.42842  0.76907  0.41779  Biso   1.000  O
  P36      1.0000 0.40950  0.83790  0.39690  Biso   1.000  P
  Be25     1.0000 0.40180  0.50710  0.36290  Biso   1.000  Be
  Be26     1.0000 0.45690  0.70640  0.37890  Biso   1.000  Be
  Be27     1.0000 0.63070  0.63720  0.44980  Biso   1.000  Be
  Be28     1.0000 0.81980  0.59050  0.51010  Biso   1.000  Be
  Be29     1.0000 0.86120  0.56100  0.32060  Biso   1.000  Be
  Be30     1.0000 0.95030  0.38920  0.37370  Biso   1.000  Be
  P37      1.0000 0.36714  0.63027  0.29606  Biso   1.000  P
  H33      1.0000 0.30590  0.65430  0.28630  Biso   1.000  H
  P38      1.0000 0.49661  0.58101  0.43774  Biso   1.000  P
  H34      1.0000 0.48080  0.56830  0.50550  Biso   1.000  H
  P39      1.0000 0.59062  0.74974  0.37667  Biso   1.000  P
  H35      1.0000 0.63670  0.73860  0.33580  Biso   1.000  H
  P40      1.0000 0.68733  0.58288  0.56570  Biso   1.000  P
  H36      1.0000 0.69830  0.61280  0.61770  Biso   1.000  H
  P41      1.0000 0.76201  0.63604  0.39229  Biso   1.000  P
  H37      1.0000 0.76050  0.69840  0.36450  Biso   1.000  H
  P42      1.0000 0.91945  0.51624  0.43669  Biso   1.000  P
  H38      1.0000 0.97780  0.54250  0.46350  Biso   1.000  H
  P43      1.0000 0.88751  0.43777  0.25796  Biso   1.000  P
  H39      1.0000 0.84760  0.38740  0.24730  Biso   1.000  H
  P44      1.0000 0.07146  0.34227  0.42843  Biso   1.000  P
  H40      1.0000 0.04340  0.35160  0.47910  Biso   1.000  H
  O97      1.0000 0.39545  0.61236  0.23078  Biso   1.000  O
  O98      1.0000 0.40509  0.68859  0.32240  Biso   1.000  O
  O99      1.0000 0.36053  0.57176  0.33948  Biso   1.000  O
  O100     1.0000 0.47352  0.52838  0.39207  Biso   1.000  O
  O101     1.0000 0.52832  0.72252  0.34547  Biso   1.000  O
  O102     1.0000 0.60957  0.71280  0.43680  Biso   1.000  O
  O103     1.0000 0.46252  0.64698  0.43011  Biso   1.000  O
  O104     1.0000 0.57193  0.58440  0.43460  Biso   1.000  O
  O105     1.0000 0.69033  0.61592  0.40218  Biso   1.000  O
  O106     1.0000 0.65447  0.63388  0.52368  Biso   1.000  O
  O107     1.0000 0.64286  0.52571  0.58102  Biso   1.000  O
  O108     1.0000 0.75305  0.55805  0.53991  Biso   1.000  O
  O109     1.0000 0.80243  0.64201  0.45264  Biso   1.000  O
  O110     1.0000 0.79135  0.59130  0.34276  Biso   1.000  O
  O111     1.0000 0.86559  0.53010  0.48485  Biso   1.000  O
  O112     1.0000 0.91519  0.55799  0.37718  Biso   1.000  O
  O113     1.0000 0.84526  0.49096  0.28815  Biso   1.000  O
  O114     1.0000 0.91636  0.45604  0.19406  Biso   1.000  O
  O115     1.0000 0.92287  0.44315  0.42409  Biso   1.000  O
  O116     1.0000 0.94257  0.41232  0.30044  Biso   1.000  O
  O117     1.0000 0.58882  0.82257  0.38986  Biso   1.000  O
  O118     1.0000 0.03139  0.38131  0.38185  Biso   1.000  O
  O119     1.0000 0.14228  0.36865  0.43395  Biso   1.000  O
  O120     1.0000 0.07158  0.26907  0.41779  Biso   1.000  O
  P45      1.0000 0.09050  0.33790  0.39690  Biso   1.000  P
  Be31     1.0000 0.09820  0.49290  0.86290  Biso   1.000  Be
  Be32     1.0000 0.04310  0.29360  0.87890  Biso   1.000  Be
  Be33     1.0000 0.86930  0.36280  0.94980  Biso   1.000  Be
  Be34     1.0000 0.68020  0.40950  0.01010  Biso   1.000  Be
  Be35     1.0000 0.63880  0.43900  0.82060  Biso   1.000  Be
  Be36     1.0000 0.54970  0.61080  0.87370  Biso   1.000  Be
  P46      1.0000 0.13286  0.36973  0.79606  Biso   1.000  P
  H41      1.0000 0.19410  0.34570  0.78630  Biso   1.000  H
  P47      1.0000 0.00339  0.41899  0.93774  Biso   1.000  P
  H42      1.0000 0.01920  0.43170  0.00550  Biso   1.000  H
  P48      1.0000 0.90938  0.25026  0.87667  Biso   1.000  P
  H43      1.0000 0.86330  0.26140  0.83580  Biso   1.000  H
  P49      1.0000 0.81267  0.41712  0.06570  Biso   1.000  P
  H44      1.0000 0.80170  0.38720  0.11770  Biso   1.000  H
  P50      1.0000 0.73799  0.36396  0.89229  Biso   1.000  P
  H45      1.0000 0.73950  0.30160  0.86450  Biso   1.000  H
  P51      1.0000 0.58055  0.48376  0.93669  Biso   1.000  P
  H46      1.0000 0.52220  0.45750  0.96350  Biso   1.000  H
  P52      1.0000 0.61249  0.56223  0.75796  Biso   1.000  P
  H47      1.0000 0.65240  0.61260  0.74730  Biso   1.000  H
  P53      1.0000 0.42854  0.65773  0.92843  Biso   1.000  P
  H48      1.0000 0.45660  0.64840  0.97910  Biso   1.000  H
  O121     1.0000 0.10455  0.38764  0.73078  Biso   1.000  O
  O122     1.0000 0.09491  0.31141  0.82240  Biso   1.000  O
  O123     1.0000 0.13947  0.42824  0.83948  Biso   1.000  O
  O124     1.0000 0.02648  0.47162  0.89207  Biso   1.000  O
  O125     1.0000 0.97168  0.27748  0.84547  Biso   1.000  O
  O126     1.0000 0.89043  0.28720  0.93680  Biso   1.000  O
  O127     1.0000 0.03748  0.35302  0.93011  Biso   1.000  O
  O128     1.0000 0.92807  0.41560  0.93460  Biso   1.000  O
  O129     1.0000 0.80967  0.38408  0.90218  Biso   1.000  O
  O130     1.0000 0.84553  0.36612  0.02368  Biso   1.000  O
  O131     1.0000 0.85714  0.47429  0.08102  Biso   1.000  O
  O132     1.0000 0.74695  0.44195  0.03991  Biso   1.000  O
  O133     1.0000 0.69757  0.35799  0.95264  Biso   1.000  O
  O134     1.0000 0.70865  0.40870  0.84276  Biso   1.000  O
  O135     1.0000 0.63441  0.46990  0.98485  Biso   1.000  O
  O136     1.0000 0.58481  0.44201  0.87718  Biso   1.000  O
  O137     1.0000 0.65474  0.50904  0.78815  Biso   1.000  O
  O138     1.0000 0.58364  0.54396  0.69406  Biso   1.000  O
  O139     1.0000 0.57713  0.55685  0.92409  Biso   1.000  O
  O140     1.0000 0.55743  0.58768  0.80044  Biso   1.000  O
  O141     1.0000 0.91118  0.17743  0.88986  Biso   1.000  O
  O142     1.0000 0.46861  0.61869  0.88185  Biso   1.000  O
  O143     1.0000 0.35772  0.63135  0.93395  Biso   1.000  O
  O144     1.0000 0.42842  0.73093  0.91779  Biso   1.000  O
  P54      1.0000 0.40950  0.66210  0.89690  Biso   1.000  P
  Be37     1.0000 0.59820  0.00710  0.13710  Biso   1.000  Be
  Be38     1.0000 0.54310  0.20640  0.12110  Biso   1.000  Be
  Be39     1.0000 0.36930  0.13720  0.05020  Biso   1.000  Be
  Be40     1.0000 0.18020  0.09050  0.98990  Biso   1.000  Be
  Be41     1.0000 0.13880  0.06100  0.17940  Biso   1.000  Be
  Be42     1.0000 0.04970  0.88920  0.12630  Biso   1.000  Be
  P55      1.0000 0.63286  0.13027  0.20394  Biso   1.000  P
  H49      1.0000 0.69410  0.15430  0.21370  Biso   1.000  H
  P56      1.0000 0.50339  0.08101  0.06226  Biso   1.000  P
  H50      1.0000 0.51920  0.06830  0.99450  Biso   1.000  H
  P57      1.0000 0.40938  0.24974  0.12333  Biso   1.000  P
  H51      1.0000 0.36330  0.23860  0.16420  Biso   1.000  H
  P58      1.0000 0.31267  0.08288  0.93430  Biso   1.000  P
  H52      1.0000 0.30170  0.11280  0.88230  Biso   1.000  H
  P59      1.0000 0.23799  0.13604  0.10771  Biso   1.000  P
  H53      1.0000 0.23950  0.19840  0.13550  Biso   1.000  H
  P60      1.0000 0.08055  0.01624  0.06331  Biso   1.000  P
  H54      1.0000 0.02220  0.04250  0.03650  Biso   1.000  H
  P61      1.0000 0.11249  0.93777  0.24204  Biso   1.000  P
  H55      1.0000 0.15240  0.88740  0.25270  Biso   1.000  H
  P62      1.0000 0.92854  0.84227  0.07157  Biso   1.000  P
  H56      1.0000 0.95660  0.85160  0.02090  Biso   1.000  H
  O145     1.0000 0.60455  0.11236  0.26922  Biso   1.000  O
  O146     1.0000 0.59491  0.18859  0.17760  Biso   1.000  O
  O147     1.0000 0.63947  0.07176  0.16052  Biso   1.000  O
  O148     1.0000 0.52648  0.02838  0.10793  Biso   1.000  O
  O149     1.0000 0.47168  0.22252  0.15453  Biso   1.000  O
  O150     1.0000 0.39043  0.21280  0.06320  Biso   1.000  O
  O151     1.0000 0.53748  0.14698  0.06989  Biso   1.000  O
  O152     1.0000 0.42807  0.08440  0.06540  Biso   1.000  O
  O153     1.0000 0.30967  0.11592  0.09782  Biso   1.000  O
  O154     1.0000 0.34553  0.13388  0.97632  Biso   1.000  O
  O155     1.0000 0.35714  0.02571  0.91898  Biso   1.000  O
  O156     1.0000 0.24695  0.05805  0.96009  Biso   1.000  O
  O157     1.0000 0.19757  0.14201  0.04736  Biso   1.000  O
  O158     1.0000 0.20865  0.09130  0.15724  Biso   1.000  O
  O159     1.0000 0.13441  0.03010  0.01515  Biso   1.000  O
  O160     1.0000 0.08481  0.05799  0.12282  Biso   1.000  O
  O161     1.0000 0.15474  0.99096  0.21185  Biso   1.000  O
  O162     1.0000 0.08364  0.95604  0.30594  Biso   1.000  O
  O163     1.0000 0.07713  0.94315  0.07591  Biso   1.000  O
  O164     1.0000 0.05743  0.91232  0.19956  Biso   1.000  O
  O165     1.0000 0.41118  0.32257  0.11014  Biso   1.000  O
  O166     1.0000 0.96861  0.88131  0.11815  Biso   1.000  O
  O167     1.0000 0.85772  0.86865  0.06605  Biso   1.000  O
  O168     1.0000 0.92842  0.76907  0.08221  Biso   1.000  O
  P63      1.0000 0.90950  0.83790  0.10310  Biso   1.000  P
  Be43     1.0000 0.90180  0.99290  0.63710  Biso   1.000  Be
  Be44     1.0000 0.95690  0.79360  0.62110  Biso   1.000  Be
  Be45     1.0000 0.13070  0.86280  0.55020  Biso   1.000  Be
  Be46     1.0000 0.31980  0.90950  0.48990  Biso   1.000  Be
  Be47     1.0000 0.36120  0.93900  0.67940  Biso   1.000  Be
  Be48     1.0000 0.45030  0.11080  0.62630  Biso   1.000  Be
  P64      1.0000 0.86714  0.86973  0.70394  Biso   1.000  P
  H57      1.0000 0.80590  0.84570  0.71370  Biso   1.000  H
  P65      1.0000 0.99661  0.91899  0.56226  Biso   1.000  P
  H58      1.0000 0.98080  0.93170  0.49450  Biso   1.000  H
  P66      1.0000 0.09062  0.75026  0.62333  Biso   1.000  P
  H59      1.0000 0.13670  0.76140  0.66420  Biso   1.000  H
  P67      1.0000 0.18733  0.91712  0.43430  Biso   1.000  P
  H60      1.0000 0.19830  0.88720  0.38230  Biso   1.000  H
  P68      1.0000 0.26201  0.86396  0.60771  Biso   1.000  P
  H61      1.0000 0.26050  0.80160  0.63550  Biso   1.000  H
  P69      1.0000 0.41945  0.98376  0.56331  Biso   1.000  P
  H62      1.0000 0.47780  0.95750  0.53650  Biso   1.000  H
  P70      1.0000 0.38751  0.06223  0.74204  Biso   1.000  P
  H63      1.0000 0.34760  0.11260  0.75270  Biso   1.000  H
  P71      1.0000 0.57146  0.15773  0.57157  Biso   1.000  P
  H64      1.0000 0.54340  0.14840  0.52090  Biso   1.000  H
  O169     1.0000 0.89545  0.88764  0.76922  Biso   1.000  O
  O170     1.0000 0.90509  0.81141  0.67760  Biso   1.000  O
  O171     1.0000 0.86053  0.92824  0.66052  Biso   1.000  O
  O172     1.0000 0.97352  0.97162  0.60793  Biso   1.000  O
  O173     1.0000 0.02832  0.77748  0.65453  Biso   1.000  O
  O174     1.0000 0.10957  0.78720  0.56320  Biso   1.000  O
  O175     1.0000 0.96252  0.85302  0.56989  Biso   1.000  O
  O176     1.0000 0.07193  0.91560  0.56540  Biso   1.000  O
  O177     1.0000 0.19033  0.88408  0.59782  Biso   1.000  O
  O178     1.0000 0.15447  0.86612  0.47632  Biso   1.000  O
  O179     1.0000 0.14286  0.97429  0.41898  Biso   1.000  O
  O180     1.0000 0.25305  0.94195  0.46009  Biso   1.000  O
  O181     1.0000 0.30243  0.85799  0.54736  Biso   1.000  O
  O182     1.0000 0.29135  0.90870  0.65724  Biso   1.000  O
  O183     1.0000 0.36559  0.96990  0.51515  Biso   1.000  O
  O184     1.0000 0.41519  0.94201  0.62282  Biso   1.000  O
  O185     1.0000 0.34526  0.00904  0.71185  Biso   1.000  O
  O186     1.0000 0.41636  0.04396  0.80594  Biso   1.000  O
  O187     1.0000 0.42287  0.05685  0.57591  Biso   1.000  O
  O188     1.0000 0.44257  0.08768  0.69956  Biso   1.000  O
  O189     1.0000 0.08882  0.67743  0.61014  Biso   1.000  O
  O190     1.0000 0.53139  0.11869  0.61815  Biso   1.000  O
  O191     1.0000 0.64228  0.13135  0.56605  Biso   1.000  O
  O192     1.0000 0.57158  0.23093  0.58221  Biso   1.000  O
  P72      1.0000 0.59050  0.16210  0.60310  Biso   1.000  P
