data_image0
_cell_length_a       16.0402
_cell_length_b       16.0402
_cell_length_c       17.7976
_cell_angle_alpha    90
_cell_angle_beta     90
_cell_angle_gamma    120

_symmetry_space_group_name_H-M    "P 1"
_symmetry_int_tables_number       1

loop_
  _symmetry_equiv_pos_as_xyz
  'x, y, z'

loop_
  _atom_site_label
  _atom_site_occupancy
  _atom_site_fract_x
  _atom_site_fract_y
  _atom_site_fract_z
  _atom_site_thermal_displace_type
  _atom_site_B_iso_or_equiv
  _atom_site_type_symbol
  C1       1.0000 0.27110  0.62250  0.19160  Biso   1.000  C
  H1       1.0000 0.22110  0.58440  0.15720  Biso   1.000  H
  C2       1.0000 0.34280  0.59470  0.20860  Biso   1.000  C
  C3       1.0000 0.34340  0.52060  0.16630  Biso   1.000  C
  C4       1.0000 0.40350  0.48710  0.18800  Biso   1.000  C
  H2       1.0000 0.40520  0.43750  0.16010  Biso   1.000  H
  N1       1.0000 0.46000  0.52460  0.24901  Biso   1.000  N
  H3       1.0000 0.49600  0.50010  0.26240  Biso   1.000  H
  C5       1.0000 0.46510  0.59640  0.29060  Biso   1.000  C
  C6       1.0000 0.40580  0.63400  0.27000  Biso   1.000  C
  C7       1.0000 0.52770  0.62930  0.35860  Biso   1.000  C
  H4       1.0000 0.56110  0.59240  0.36350  Biso   1.000  H
  H5       1.0000 0.48810  0.61920  0.40330  Biso   1.000  H
  H6       1.0000 0.57520  0.69790  0.35370  Biso   1.000  H
  C8       1.0000 0.28340  0.48060  0.09650  Biso   1.000  C
  H7       1.0000 0.29650  0.43230  0.07320  Biso   1.000  H
  H8       1.0000 0.21420  0.44840  0.10970  Biso   1.000  H
  C9       1.0000 0.19760  0.77810  0.23730  Biso   1.000  C
  C10      1.0000 0.05840  0.76670  0.17140  Biso   1.000  C
  H9       1.0000 0.06420  0.72680  0.13470  Biso   1.000  H
  C11      1.0000 0.11420  0.85990  0.28530  Biso   1.000  C
  H10      1.0000 0.15990  0.88640  0.32490  Biso   1.000  H
  C12      1.0000 0.98420  0.78690  0.16680  Biso   1.000  C
  H11      1.0000 0.94150  0.76480  0.12510  Biso   1.000  H
  C13      1.0000 0.97250  0.83970  0.22350  Biso   1.000  C
  H12      1.0000 0.91970  0.85080  0.22130  Biso   1.000  H
  C14      1.0000 0.03560  0.87630  0.28290  Biso   1.000  C
  H13      1.0000 0.02640  0.91190  0.32150  Biso   1.000  H
  C15      1.0000 0.12440  0.80500  0.22980  Biso   1.000  C
  N2       1.0000 0.19660  0.71040  0.20183  Biso   1.000  N
  N3       1.0000 0.27280  0.69670  0.22130  Biso   1.000  N
  O1       1.0000 0.28130  0.84120  0.28036  Biso   1.000  O
  O2       1.0000 0.40940  0.70250  0.31384  Biso   1.000  O
  O3       1.0000 0.30616  0.55766  0.04405  Biso   1.000  O
  H14      1.0000 0.37050  0.60720  0.04090  Biso   1.000  H
  Mo1      1.0000 0.38065  0.80508  0.30019  Biso   1.000  Mo
  C16      1.0000 0.21950  0.79830  0.23230  Biso   1.000  C
  C17      1.0000 0.15730  0.83980  0.21640  Biso   1.000  C
  C18      1.0000 0.17480  0.92680  0.24690  Biso   1.000  C
  H15      1.0000 0.22840  0.96240  0.27910  Biso   1.000  H
  C19      1.0000 0.11350  0.96090  0.23000  Biso   1.000  C
  H16      1.0000 0.12700  0.02080  0.25100  Biso   1.000  H
  C20      1.0000 0.03630  0.91500  0.18590  Biso   1.000  C
  H17      1.0000 0.99570  0.94080  0.17520  Biso   1.000  H
  C21      1.0000 0.01920  0.83090  0.15770  Biso   1.000  C
  H18      1.0000 0.96440  0.79640  0.12640  Biso   1.000  H
  C22      1.0000 0.07640  0.79120  0.17120  Biso   1.000  C
  H19      1.0000 0.06060  0.73090  0.14970  Biso   1.000  H
  C23      1.0000 0.37750  0.64860  0.85827  Biso   1.000  C
  H20      1.0000 0.41560  0.63670  0.82387  Biso   1.000  H
  C24      1.0000 0.40530  0.74810  0.87527  Biso   1.000  C
  C25      1.0000 0.47940  0.82280  0.83297  Biso   1.000  C
  C26      1.0000 0.51290  0.91640  0.85467  Biso   1.000  C
  H21      1.0000 0.56250  0.96770  0.82677  Biso   1.000  H
  N4       1.0000 0.47540  0.93540  0.91568  Biso   1.000  N
  H22      1.0000 0.49990  0.99590  0.92907  Biso   1.000  H
  C27      1.0000 0.40360  0.86870  0.95727  Biso   1.000  C
  C28      1.0000 0.36600  0.77180  0.93667  Biso   1.000  C
  C29      1.0000 0.37070  0.89840  0.02527  Biso   1.000  C
  H23      1.0000 0.40760  0.96870  0.03017  Biso   1.000  H
  H24      1.0000 0.38080  0.86890  0.06997  Biso   1.000  H
  H25      1.0000 0.30210  0.87730  0.02037  Biso   1.000  H
  C30      1.0000 0.51940  0.80280  0.76317  Biso   1.000  C
  H26      1.0000 0.56770  0.86420  0.73987  Biso   1.000  H
  H27      1.0000 0.55160  0.76580  0.77637  Biso   1.000  H
  C31      1.0000 0.22190  0.41950  0.90397  Biso   1.000  C
  C32      1.0000 0.23330  0.29170  0.83807  Biso   1.000  C
  H28      1.0000 0.27320  0.33740  0.80137  Biso   1.000  H
  C33      1.0000 0.14010  0.25430  0.95197  Biso   1.000  C
  H29      1.0000 0.11360  0.27350  0.99157  Biso   1.000  H
  C34      1.0000 0.21310  0.19730  0.83347  Biso   1.000  C
  H30      1.0000 0.23520  0.17670  0.79177  Biso   1.000  H
  C35      1.0000 0.16030  0.13280  0.89017  Biso   1.000  C
  H31      1.0000 0.14920  0.06890  0.88797  Biso   1.000  H
  C36      1.0000 0.12370  0.15930  0.94957  Biso   1.000  C
  H32      1.0000 0.08810  0.11450  0.98817  Biso   1.000  H
  C37      1.0000 0.19500  0.31940  0.89647  Biso   1.000  C
  N5       1.0000 0.28960  0.48620  0.86850  Biso   1.000  N
  N6       1.0000 0.30330  0.57610  0.88797  Biso   1.000  N
  O4       1.0000 0.15880  0.44010  0.94703  Biso   1.000  O
  O5       1.0000 0.29750  0.70690  0.98051  Biso   1.000  O
  O6       1.0000 0.44234  0.74850  0.71072  Biso   1.000  O
  H33      1.0000 0.39280  0.76330  0.70757  Biso   1.000  H
  Mo2      1.0000 0.19492  0.57557  0.96686  Biso   1.000  Mo
  C38      1.0000 0.20170  0.42120  0.89897  Biso   1.000  C
  C39      1.0000 0.16020  0.31750  0.88307  Biso   1.000  C
  C40      1.0000 0.07320  0.24800  0.91357  Biso   1.000  C
  H34      1.0000 0.03760  0.26600  0.94577  Biso   1.000  H
  C41      1.0000 0.03910  0.15260  0.89667  Biso   1.000  C
  H35      1.0000 0.97920  0.10620  0.91767  Biso   1.000  H
  C42      1.0000 0.08500  0.12130  0.85257  Biso   1.000  C
  H36      1.0000 0.05920  0.05490  0.84187  Biso   1.000  H
  C43      1.0000 0.16910  0.18830  0.82437  Biso   1.000  C
  H37      1.0000 0.20360  0.16800  0.79307  Biso   1.000  H
  C44      1.0000 0.20880  0.28520  0.83787  Biso   1.000  C
  H38      1.0000 0.26910  0.32970  0.81637  Biso   1.000  H
  C45      1.0000 0.35140  0.72890  0.52493  Biso   1.000  C
  H39      1.0000 0.36330  0.77890  0.49053  Biso   1.000  H
  C46      1.0000 0.25190  0.65720  0.54193  Biso   1.000  C
  C47      1.0000 0.17720  0.65660  0.49963  Biso   1.000  C
  C48      1.0000 0.08360  0.59650  0.52133  Biso   1.000  C
  H40      1.0000 0.03230  0.59480  0.49343  Biso   1.000  H
  N7       1.0000 0.06460  0.54000  0.58234  Biso   1.000  N
  H41      1.0000 0.00410  0.50400  0.59573  Biso   1.000  H
  C49      1.0000 0.13130  0.53490  0.62393  Biso   1.000  C
  C50      1.0000 0.22820  0.59420  0.60333  Biso   1.000  C
  C51      1.0000 0.10160  0.47230  0.69193  Biso   1.000  C
  H42      1.0000 0.03130  0.43890  0.69683  Biso   1.000  H
  H43      1.0000 0.13110  0.51190  0.73663  Biso   1.000  H
  H44      1.0000 0.12270  0.42480  0.68703  Biso   1.000  H
  C52      1.0000 0.19720  0.71660  0.42983  Biso   1.000  C
  H45      1.0000 0.13580  0.70350  0.40653  Biso   1.000  H
  H46      1.0000 0.23420  0.78580  0.44303  Biso   1.000  H
  C53      1.0000 0.58050  0.80240  0.57063  Biso   1.000  C
  C54      1.0000 0.70830  0.94160  0.50473  Biso   1.000  C
  H47      1.0000 0.66260  0.93580  0.46803  Biso   1.000  H
  C55      1.0000 0.74570  0.88580  0.61863  Biso   1.000  C
  H48      1.0000 0.72650  0.84010  0.65823  Biso   1.000  H
  C56      1.0000 0.80270  0.01580  0.50013  Biso   1.000  C
  H49      1.0000 0.82330  0.05850  0.45843  Biso   1.000  H
  C57      1.0000 0.86720  0.02750  0.55683  Biso   1.000  C
  H50      1.0000 0.93110  0.08030  0.55463  Biso   1.000  H
  C58      1.0000 0.84070  0.96440  0.61623  Biso   1.000  C
  H51      1.0000 0.88550  0.97360  0.65483  Biso   1.000  H
  C59      1.0000 0.68060  0.87560  0.56313  Biso   1.000  C
  N8       1.0000 0.51380  0.80340  0.53516  Biso   1.000  N
  N9       1.0000 0.42390  0.72720  0.55463  Biso   1.000  N
  O7       1.0000 0.55990  0.71870  0.61369  Biso   1.000  O
  O8       1.0000 0.29310  0.59060  0.64717  Biso   1.000  O
  O9       1.0000 0.25150  0.69384  0.37738  Biso   1.000  O
  H52      1.0000 0.23670  0.62950  0.37423  Biso   1.000  H
  Mo3      1.0000 0.42443  0.61935  0.63352  Biso   1.000  Mo
  C60      1.0000 0.57880  0.78050  0.56563  Biso   1.000  C
  C61      1.0000 0.68250  0.84270  0.54973  Biso   1.000  C
  C62      1.0000 0.75200  0.82520  0.58023  Biso   1.000  C
  H53      1.0000 0.73400  0.77160  0.61243  Biso   1.000  H
  C63      1.0000 0.84740  0.88650  0.56333  Biso   1.000  C
  H54      1.0000 0.89380  0.87300  0.58433  Biso   1.000  H
  C64      1.0000 0.87870  0.96370  0.51923  Biso   1.000  C
  H55      1.0000 0.94510  0.00430  0.50853  Biso   1.000  H
  C65      1.0000 0.81170  0.98080  0.49103  Biso   1.000  C
  H56      1.0000 0.83200  0.03560  0.45973  Biso   1.000  H
  C66      1.0000 0.71480  0.92360  0.50453  Biso   1.000  C
  H57      1.0000 0.67030  0.93940  0.48303  Biso   1.000  H
  C67      1.0000 0.62250  0.27110  0.80840  Biso   1.000  C
  H58      1.0000 0.58440  0.22110  0.84280  Biso   1.000  H
  C68      1.0000 0.59470  0.34280  0.79140  Biso   1.000  C
  C69      1.0000 0.52060  0.34340  0.83370  Biso   1.000  C
  C70      1.0000 0.48710  0.40350  0.81200  Biso   1.000  C
  H59      1.0000 0.43750  0.40520  0.83990  Biso   1.000  H
  N10      1.0000 0.52460  0.46000  0.75099  Biso   1.000  N
  H60      1.0000 0.50010  0.49600  0.73760  Biso   1.000  H
  C71      1.0000 0.59640  0.46510  0.70940  Biso   1.000  C
  C72      1.0000 0.63400  0.40580  0.73000  Biso   1.000  C
  C73      1.0000 0.62930  0.52770  0.64140  Biso   1.000  C
  H61      1.0000 0.59240  0.56110  0.63650  Biso   1.000  H
  H62      1.0000 0.61920  0.48810  0.59670  Biso   1.000  H
  H63      1.0000 0.69790  0.57520  0.64630  Biso   1.000  H
  C74      1.0000 0.48060  0.28340  0.90350  Biso   1.000  C
  H64      1.0000 0.43230  0.29650  0.92680  Biso   1.000  H
  H65      1.0000 0.44840  0.21420  0.89030  Biso   1.000  H
  C75      1.0000 0.77810  0.19760  0.76270  Biso   1.000  C
  C76      1.0000 0.76670  0.05840  0.82860  Biso   1.000  C
  H66      1.0000 0.72680  0.06420  0.86530  Biso   1.000  H
  C77      1.0000 0.85990  0.11420  0.71470  Biso   1.000  C
  H67      1.0000 0.88640  0.15990  0.67510  Biso   1.000  H
  C78      1.0000 0.78690  0.98420  0.83320  Biso   1.000  C
  H68      1.0000 0.76480  0.94150  0.87490  Biso   1.000  H
  C79      1.0000 0.83970  0.97250  0.77650  Biso   1.000  C
  H69      1.0000 0.85080  0.91970  0.77870  Biso   1.000  H
  C80      1.0000 0.87630  0.03560  0.71710  Biso   1.000  C
  H70      1.0000 0.91190  0.02640  0.67850  Biso   1.000  H
  C81      1.0000 0.80500  0.12440  0.77020  Biso   1.000  C
  N11      1.0000 0.71040  0.19660  0.79817  Biso   1.000  N
  N12      1.0000 0.69670  0.27280  0.77870  Biso   1.000  N
  O10      1.0000 0.84120  0.28130  0.71964  Biso   1.000  O
  O11      1.0000 0.70250  0.40940  0.68616  Biso   1.000  O
  O12      1.0000 0.55766  0.30616  0.95595  Biso   1.000  O
  H71      1.0000 0.60720  0.37050  0.95910  Biso   1.000  H
  Mo4      1.0000 0.80508  0.38065  0.69981  Biso   1.000  Mo
  C82      1.0000 0.79830  0.21950  0.76770  Biso   1.000  C
  C83      1.0000 0.83980  0.15730  0.78360  Biso   1.000  C
  C84      1.0000 0.92680  0.17480  0.75310  Biso   1.000  C
  H72      1.0000 0.96240  0.22840  0.72090  Biso   1.000  H
  C85      1.0000 0.96090  0.11350  0.77000  Biso   1.000  C
  H73      1.0000 0.02080  0.12700  0.74900  Biso   1.000  H
  C86      1.0000 0.91500  0.03630  0.81410  Biso   1.000  C
  H74      1.0000 0.94080  0.99570  0.82480  Biso   1.000  H
  C87      1.0000 0.83090  0.01920  0.84230  Biso   1.000  C
  H75      1.0000 0.79640  0.96440  0.87360  Biso   1.000  H
  C88      1.0000 0.79120  0.07640  0.82880  Biso   1.000  C
  H76      1.0000 0.73090  0.06060  0.85030  Biso   1.000  H
  C89      1.0000 0.64860  0.37750  0.14173  Biso   1.000  C
  H77      1.0000 0.63670  0.41560  0.17613  Biso   1.000  H
  C90      1.0000 0.74810  0.40530  0.12473  Biso   1.000  C
  C91      1.0000 0.82280  0.47940  0.16703  Biso   1.000  C
  C92      1.0000 0.91640  0.51290  0.14533  Biso   1.000  C
  H78      1.0000 0.96770  0.56250  0.17323  Biso   1.000  H
  N13      1.0000 0.93540  0.47540  0.08432  Biso   1.000  N
  H79      1.0000 0.99590  0.49990  0.07093  Biso   1.000  H
  C93      1.0000 0.86870  0.40360  0.04273  Biso   1.000  C
  C94      1.0000 0.77180  0.36600  0.06333  Biso   1.000  C
  C95      1.0000 0.89840  0.37070  0.97473  Biso   1.000  C
  H80      1.0000 0.96870  0.40760  0.96983  Biso   1.000  H
  H81      1.0000 0.86890  0.38080  0.93003  Biso   1.000  H
  H82      1.0000 0.87730  0.30210  0.97963  Biso   1.000  H
  C96      1.0000 0.80280  0.51940  0.23683  Biso   1.000  C
  H83      1.0000 0.86420  0.56770  0.26013  Biso   1.000  H
  H84      1.0000 0.76580  0.55160  0.22363  Biso   1.000  H
  C97      1.0000 0.41950  0.22190  0.09603  Biso   1.000  C
  C98      1.0000 0.29170  0.23330  0.16193  Biso   1.000  C
  H85      1.0000 0.33740  0.27320  0.19863  Biso   1.000  H
  C99      1.0000 0.25430  0.14010  0.04803  Biso   1.000  C
  H86      1.0000 0.27350  0.11360  0.00843  Biso   1.000  H
  C100     1.0000 0.19730  0.21310  0.16653  Biso   1.000  C
  H87      1.0000 0.17670  0.23520  0.20823  Biso   1.000  H
  C101     1.0000 0.13280  0.16030  0.10983  Biso   1.000  C
  H88      1.0000 0.06890  0.14920  0.11203  Biso   1.000  H
  C102     1.0000 0.15930  0.12370  0.05043  Biso   1.000  C
  H89      1.0000 0.11450  0.08810  0.01183  Biso   1.000  H
  C103     1.0000 0.31940  0.19500  0.10353  Biso   1.000  C
  N14      1.0000 0.48620  0.28960  0.13150  Biso   1.000  N
  N15      1.0000 0.57610  0.30330  0.11203  Biso   1.000  N
  O13      1.0000 0.44010  0.15880  0.05297  Biso   1.000  O
  O14      1.0000 0.70690  0.29750  0.01949  Biso   1.000  O
  O15      1.0000 0.74850  0.44234  0.28928  Biso   1.000  O
  H90      1.0000 0.76330  0.39280  0.29243  Biso   1.000  H
  Mo5      1.0000 0.57557  0.19492  0.03314  Biso   1.000  Mo
  C104     1.0000 0.42120  0.20170  0.10103  Biso   1.000  C
  C105     1.0000 0.31750  0.16020  0.11693  Biso   1.000  C
  C106     1.0000 0.24800  0.07320  0.08643  Biso   1.000  C
  H91      1.0000 0.26600  0.03760  0.05423  Biso   1.000  H
  C107     1.0000 0.15260  0.03910  0.10333  Biso   1.000  C
  H92      1.0000 0.10620  0.97920  0.08233  Biso   1.000  H
  C108     1.0000 0.12130  0.08500  0.14743  Biso   1.000  C
  H93      1.0000 0.05490  0.05920  0.15813  Biso   1.000  H
  C109     1.0000 0.18830  0.16910  0.17563  Biso   1.000  C
  H94      1.0000 0.16800  0.20360  0.20693  Biso   1.000  H
  C110     1.0000 0.28520  0.20880  0.16213  Biso   1.000  C
  H95      1.0000 0.32970  0.26910  0.18363  Biso   1.000  H
  C111     1.0000 0.72890  0.35140  0.47507  Biso   1.000  C
  H96      1.0000 0.77890  0.36330  0.50947  Biso   1.000  H
  C112     1.0000 0.65720  0.25190  0.45807  Biso   1.000  C
  C113     1.0000 0.65660  0.17720  0.50037  Biso   1.000  C
  C114     1.0000 0.59650  0.08360  0.47867  Biso   1.000  C
  H97      1.0000 0.59480  0.03230  0.50657  Biso   1.000  H
  N16      1.0000 0.54000  0.06460  0.41766  Biso   1.000  N
  H98      1.0000 0.50400  0.00410  0.40427  Biso   1.000  H
  C115     1.0000 0.53490  0.13130  0.37607  Biso   1.000  C
  C116     1.0000 0.59420  0.22820  0.39667  Biso   1.000  C
  C117     1.0000 0.47230  0.10160  0.30807  Biso   1.000  C
  H99      1.0000 0.43890  0.03130  0.30317  Biso   1.000  H
  H100     1.0000 0.51190  0.13110  0.26337  Biso   1.000  H
  H101     1.0000 0.42480  0.12270  0.31297  Biso   1.000  H
  C118     1.0000 0.71660  0.19720  0.57017  Biso   1.000  C
  H102     1.0000 0.70350  0.13580  0.59347  Biso   1.000  H
  H103     1.0000 0.78580  0.23420  0.55697  Biso   1.000  H
  C119     1.0000 0.80240  0.58050  0.42937  Biso   1.000  C
  C120     1.0000 0.94160  0.70830  0.49527  Biso   1.000  C
  H104     1.0000 0.93580  0.66260  0.53197  Biso   1.000  H
  C121     1.0000 0.88580  0.74570  0.38137  Biso   1.000  C
  H105     1.0000 0.84010  0.72650  0.34177  Biso   1.000  H
  C122     1.0000 0.01580  0.80270  0.49987  Biso   1.000  C
  H106     1.0000 0.05850  0.82330  0.54157  Biso   1.000  H
  C123     1.0000 0.02750  0.86720  0.44317  Biso   1.000  C
  H107     1.0000 0.08030  0.93110  0.44537  Biso   1.000  H
  C124     1.0000 0.96440  0.84070  0.38377  Biso   1.000  C
  H108     1.0000 0.97360  0.88550  0.34517  Biso   1.000  H
  C125     1.0000 0.87560  0.68060  0.43687  Biso   1.000  C
  N17      1.0000 0.80340  0.51380  0.46484  Biso   1.000  N
  N18      1.0000 0.72720  0.42390  0.44537  Biso   1.000  N
  O16      1.0000 0.71870  0.55990  0.38631  Biso   1.000  O
  O17      1.0000 0.59060  0.29310  0.35283  Biso   1.000  O
  O18      1.0000 0.69384  0.25150  0.62262  Biso   1.000  O
  H109     1.0000 0.62950  0.23670  0.62577  Biso   1.000  H
  Mo6      1.0000 0.61935  0.42443  0.36648  Biso   1.000  Mo
  C126     1.0000 0.78050  0.57880  0.43437  Biso   1.000  C
  C127     1.0000 0.84270  0.68250  0.45027  Biso   1.000  C
  C128     1.0000 0.82520  0.75200  0.41977  Biso   1.000  C
  H110     1.0000 0.77160  0.73400  0.38757  Biso   1.000  H
  C129     1.0000 0.88650  0.84740  0.43667  Biso   1.000  C
  H111     1.0000 0.87300  0.89380  0.41567  Biso   1.000  H
  C130     1.0000 0.96370  0.87870  0.48077  Biso   1.000  C
  H112     1.0000 0.00430  0.94510  0.49147  Biso   1.000  H
  C131     1.0000 0.98080  0.81170  0.50897  Biso   1.000  C
  H113     1.0000 0.03560  0.83200  0.54027  Biso   1.000  H
  C132     1.0000 0.92360  0.71480  0.49547  Biso   1.000  C
  H114     1.0000 0.93940  0.67030  0.51697  Biso   1.000  H
