data_image0
_cell_length_a       14.4681
_cell_length_b       17.8162
_cell_length_c       6.8047
_cell_angle_alpha    90
_cell_angle_beta     90.868
_cell_angle_gamma    90

_symmetry_space_group_name_H-M    "P 1"
_symmetry_int_tables_number       1

loop_
  _symmetry_equiv_pos_as_xyz
  'x, y, z'

loop_
  _atom_site_label
  _atom_site_occupancy
  _atom_site_fract_x
  _atom_site_fract_y
  _atom_site_fract_z
  _atom_site_thermal_displace_type
  _atom_site_B_iso_or_equiv
  _atom_site_type_symbol
  C1       1.0000 0.25329  0.69968  0.31420  Biso   1.000  C
  C2       1.0000 0.18640  0.64628  0.26110  Biso   1.000  C
  H1       1.0000 0.20020  0.59540  0.26930  Biso   1.000  H
  C3       1.0000 0.09904  0.66949  0.19580  Biso   1.000  C
  C4       1.0000 0.07826  0.74507  0.18020  Biso   1.000  C
  H2       1.0000 0.02040  0.76030  0.13440  Biso   1.000  H
  C5       1.0000 0.14436  0.79799  0.23340  Biso   1.000  C
  C6       1.0000 0.23090  0.77512  0.30110  Biso   1.000  C
  H3       1.0000 0.27450  0.81100  0.33810  Biso   1.000  H
  C7       1.0000 0.02712  0.61299  0.14440  Biso   1.000  C
  C8       1.0000 0.12040  0.87984  0.22450  Biso   1.000  C
  C9       1.0000 0.36040  0.60310  0.43850  Biso   1.000  C
  H4       1.0000 0.36250  0.57150  0.32240  Biso   1.000  H
  H5       1.0000 0.31110  0.58470  0.52080  Biso   1.000  H
  C10      1.0000 0.45090  0.59740  0.54910  Biso   1.000  C
  C11      1.0000 0.53320  0.60580  0.45470  Biso   1.000  C
  H6       1.0000 0.53280  0.61790  0.32170  Biso   1.000  H
  C12      1.0000 0.61670  0.59690  0.55340  Biso   1.000  C
  H7       1.0000 0.67170  0.60000  0.48470  Biso   1.000  H
  C13      1.0000 0.61900  0.58330  0.75200  Biso   1.000  C
  C14      1.0000 0.53650  0.57760  0.84730  Biso   1.000  C
  H8       1.0000 0.53660  0.56930  0.98230  Biso   1.000  H
  C15      1.0000 0.45310  0.58400  0.74650  Biso   1.000  C
  H9       1.0000 0.39810  0.57910  0.81400  Biso   1.000  H
  C16      1.0000 0.70870  0.57047  0.86000  Biso   1.000  C
  Cd1      1.0000 0.13579  0.03195  0.44281  Biso   1.000  Cd
  N1       1.0000 0.34058  0.67842  0.38080  Biso   1.000  N
  H10      1.0000 0.38380  0.71150  0.38740  Biso   1.000  H
  O1       1.0000 0.17337  0.92524  0.31270  Biso   1.000  O
  O2       1.0000 0.04744  0.89685  0.13340  Biso   1.000  O
  O3       1.0000 0.95233  0.63451  0.06690  Biso   1.000  O
  O4       1.0000 0.04087  0.54314  0.18100  Biso   1.000  O
  O5       1.0000 0.77977  0.55182  0.76730  Biso   1.000  O
  O6       1.0000 0.71111  0.57481  0.04270  Biso   1.000  O
  C17      1.0000 0.41800  0.72400  0.43300  Biso   1.000  C
  H11      1.0000 0.39820  0.76290  0.52230  Biso   1.000  H
  H12      1.0000 0.44080  0.74810  0.31530  Biso   1.000  H
  C18      1.0000 0.49290  0.68030  0.52600  Biso   1.000  C
  C19      1.0000 0.56500  0.64800  0.42100  Biso   1.000  C
  H13      1.0000 0.56490  0.65140  0.28480  Biso   1.000  H
  C20      1.0000 0.63600  0.61100  0.52100  Biso   1.000  C
  H14      1.0000 0.68360  0.58950  0.45070  Biso   1.000  H
  C21      1.0000 0.63510  0.60600  0.72400  Biso   1.000  C
  C22      1.0000 0.56340  0.63830  0.82900  Biso   1.000  C
  H15      1.0000 0.56300  0.63500  0.96520  Biso   1.000  H
  C23      1.0000 0.49230  0.67540  0.72900  Biso   1.000  C
  H16      1.0000 0.44430  0.69690  0.79930  Biso   1.000  H
  H17      1.0000 0.34310  0.63490  0.43590  Biso   1.000  H
  C24      1.0000 0.74671  0.19968  0.18580  Biso   1.000  C
  C25      1.0000 0.81360  0.14628  0.23890  Biso   1.000  C
  H18      1.0000 0.79980  0.09540  0.23070  Biso   1.000  H
  C26      1.0000 0.90096  0.16949  0.30420  Biso   1.000  C
  C27      1.0000 0.92174  0.24507  0.31980  Biso   1.000  C
  H19      1.0000 0.97960  0.26030  0.36560  Biso   1.000  H
  C28      1.0000 0.85564  0.29799  0.26660  Biso   1.000  C
  C29      1.0000 0.76910  0.27512  0.19890  Biso   1.000  C
  H20      1.0000 0.72550  0.31100  0.16190  Biso   1.000  H
  C30      1.0000 0.97288  0.11299  0.35560  Biso   1.000  C
  C31      1.0000 0.87960  0.37984  0.27550  Biso   1.000  C
  C32      1.0000 0.63960  0.10310  0.06150  Biso   1.000  C
  H21      1.0000 0.63750  0.07150  0.17760  Biso   1.000  H
  H22      1.0000 0.68890  0.08470  0.97920  Biso   1.000  H
  C33      1.0000 0.54910  0.09740  0.95090  Biso   1.000  C
  C34      1.0000 0.46680  0.10580  0.04530  Biso   1.000  C
  H23      1.0000 0.46720  0.11790  0.17830  Biso   1.000  H
  C35      1.0000 0.38330  0.09690  0.94660  Biso   1.000  C
  H24      1.0000 0.32830  0.10000  0.01530  Biso   1.000  H
  C36      1.0000 0.38100  0.08330  0.74800  Biso   1.000  C
  C37      1.0000 0.46350  0.07760  0.65270  Biso   1.000  C
  H25      1.0000 0.46340  0.06930  0.51770  Biso   1.000  H
  C38      1.0000 0.54690  0.08400  0.75350  Biso   1.000  C
  H26      1.0000 0.60190  0.07910  0.68600  Biso   1.000  H
  C39      1.0000 0.29130  0.07047  0.64000  Biso   1.000  C
  Cd2      1.0000 0.86421  0.53195  0.05719  Biso   1.000  Cd
  N2       1.0000 0.65942  0.17842  0.11920  Biso   1.000  N
  H27      1.0000 0.61620  0.21150  0.11260  Biso   1.000  H
  O7       1.0000 0.82663  0.42524  0.18730  Biso   1.000  O
  O8       1.0000 0.95256  0.39685  0.36660  Biso   1.000  O
  O9       1.0000 0.04767  0.13451  0.43310  Biso   1.000  O
  O10      1.0000 0.95913  0.04314  0.31900  Biso   1.000  O
  O11      1.0000 0.22023  0.05182  0.73270  Biso   1.000  O
  O12      1.0000 0.28889  0.07481  0.45730  Biso   1.000  O
  C40      1.0000 0.58200  0.22400  0.06700  Biso   1.000  C
  H28      1.0000 0.60180  0.26290  0.97770  Biso   1.000  H
  H29      1.0000 0.55920  0.24810  0.18470  Biso   1.000  H
  C41      1.0000 0.50710  0.18030  0.97400  Biso   1.000  C
  C42      1.0000 0.43500  0.14800  0.07900  Biso   1.000  C
  H30      1.0000 0.43510  0.15140  0.21520  Biso   1.000  H
  C43      1.0000 0.36400  0.11100  0.97900  Biso   1.000  C
  H31      1.0000 0.31640  0.08950  0.04930  Biso   1.000  H
  C44      1.0000 0.36490  0.10600  0.77600  Biso   1.000  C
  C45      1.0000 0.43660  0.13830  0.67100  Biso   1.000  C
  H32      1.0000 0.43700  0.13500  0.53480  Biso   1.000  H
  C46      1.0000 0.50770  0.17540  0.77100  Biso   1.000  C
  H33      1.0000 0.55570  0.19690  0.70070  Biso   1.000  H
  H34      1.0000 0.65690  0.13490  0.06410  Biso   1.000  H
  C47      1.0000 0.74671  0.30032  0.68580  Biso   1.000  C
  C48      1.0000 0.81360  0.35372  0.73890  Biso   1.000  C
  H35      1.0000 0.79980  0.40460  0.73070  Biso   1.000  H
  C49      1.0000 0.90096  0.33051  0.80420  Biso   1.000  C
  C50      1.0000 0.92174  0.25493  0.81980  Biso   1.000  C
  H36      1.0000 0.97960  0.23970  0.86560  Biso   1.000  H
  C51      1.0000 0.85564  0.20201  0.76660  Biso   1.000  C
  C52      1.0000 0.76910  0.22488  0.69890  Biso   1.000  C
  H37      1.0000 0.72550  0.18900  0.66190  Biso   1.000  H
  C53      1.0000 0.97288  0.38701  0.85560  Biso   1.000  C
  C54      1.0000 0.87960  0.12016  0.77550  Biso   1.000  C
  C55      1.0000 0.63960  0.39690  0.56150  Biso   1.000  C
  H38      1.0000 0.63750  0.42850  0.67760  Biso   1.000  H
  H39      1.0000 0.68890  0.41530  0.47920  Biso   1.000  H
  C56      1.0000 0.54910  0.40260  0.45090  Biso   1.000  C
  C57      1.0000 0.46680  0.39420  0.54530  Biso   1.000  C
  H40      1.0000 0.46720  0.38210  0.67830  Biso   1.000  H
  C58      1.0000 0.38330  0.40310  0.44660  Biso   1.000  C
  H41      1.0000 0.32830  0.40000  0.51530  Biso   1.000  H
  C59      1.0000 0.38100  0.41670  0.24800  Biso   1.000  C
  C60      1.0000 0.46350  0.42240  0.15270  Biso   1.000  C
  H42      1.0000 0.46340  0.43070  0.01770  Biso   1.000  H
  C61      1.0000 0.54690  0.41600  0.25350  Biso   1.000  C
  H43      1.0000 0.60190  0.42090  0.18600  Biso   1.000  H
  C62      1.0000 0.29130  0.42953  0.14000  Biso   1.000  C
  Cd3      1.0000 0.86421  0.96805  0.55719  Biso   1.000  Cd
  N3       1.0000 0.65942  0.32158  0.61920  Biso   1.000  N
  H44      1.0000 0.61620  0.28850  0.61260  Biso   1.000  H
  O13      1.0000 0.82663  0.07476  0.68730  Biso   1.000  O
  O14      1.0000 0.95256  0.10315  0.86660  Biso   1.000  O
  O15      1.0000 0.04767  0.36549  0.93310  Biso   1.000  O
  O16      1.0000 0.95913  0.45686  0.81900  Biso   1.000  O
  O17      1.0000 0.22023  0.44818  0.23270  Biso   1.000  O
  O18      1.0000 0.28889  0.42519  0.95730  Biso   1.000  O
  C63      1.0000 0.58200  0.27600  0.56700  Biso   1.000  C
  H45      1.0000 0.60180  0.23710  0.47770  Biso   1.000  H
  H46      1.0000 0.55920  0.25190  0.68470  Biso   1.000  H
  C64      1.0000 0.50710  0.31970  0.47400  Biso   1.000  C
  C65      1.0000 0.43500  0.35200  0.57900  Biso   1.000  C
  H47      1.0000 0.43510  0.34860  0.71520  Biso   1.000  H
  C66      1.0000 0.36400  0.38900  0.47900  Biso   1.000  C
  H48      1.0000 0.31640  0.41050  0.54930  Biso   1.000  H
  C67      1.0000 0.36490  0.39400  0.27600  Biso   1.000  C
  C68      1.0000 0.43660  0.36170  0.17100  Biso   1.000  C
  H49      1.0000 0.43700  0.36500  0.03480  Biso   1.000  H
  C69      1.0000 0.50770  0.32460  0.27100  Biso   1.000  C
  H50      1.0000 0.55570  0.30310  0.20070  Biso   1.000  H
  H51      1.0000 0.65690  0.36510  0.56410  Biso   1.000  H
  C70      1.0000 0.25329  0.80032  0.81420  Biso   1.000  C
  C71      1.0000 0.18640  0.85372  0.76110  Biso   1.000  C
  H52      1.0000 0.20020  0.90460  0.76930  Biso   1.000  H
  C72      1.0000 0.09904  0.83051  0.69580  Biso   1.000  C
  C73      1.0000 0.07826  0.75493  0.68020  Biso   1.000  C
  H53      1.0000 0.02040  0.73970  0.63440  Biso   1.000  H
  C74      1.0000 0.14436  0.70201  0.73340  Biso   1.000  C
  C75      1.0000 0.23090  0.72488  0.80110  Biso   1.000  C
  H54      1.0000 0.27450  0.68900  0.83810  Biso   1.000  H
  C76      1.0000 0.02712  0.88701  0.64440  Biso   1.000  C
  C77      1.0000 0.12040  0.62016  0.72450  Biso   1.000  C
  C78      1.0000 0.36040  0.89690  0.93850  Biso   1.000  C
  H55      1.0000 0.36250  0.92850  0.82240  Biso   1.000  H
  H56      1.0000 0.31110  0.91530  0.02080  Biso   1.000  H
  C79      1.0000 0.45090  0.90260  0.04910  Biso   1.000  C
  C80      1.0000 0.53320  0.89420  0.95470  Biso   1.000  C
  H57      1.0000 0.53280  0.88210  0.82170  Biso   1.000  H
  C81      1.0000 0.61670  0.90310  0.05340  Biso   1.000  C
  H58      1.0000 0.67170  0.90000  0.98470  Biso   1.000  H
  C82      1.0000 0.61900  0.91670  0.25200  Biso   1.000  C
  C83      1.0000 0.53650  0.92240  0.34730  Biso   1.000  C
  H59      1.0000 0.53660  0.93070  0.48230  Biso   1.000  H
  C84      1.0000 0.45310  0.91600  0.24650  Biso   1.000  C
  H60      1.0000 0.39810  0.92090  0.31400  Biso   1.000  H
  C85      1.0000 0.70870  0.92953  0.36000  Biso   1.000  C
  Cd4      1.0000 0.13579  0.46805  0.94281  Biso   1.000  Cd
  N4       1.0000 0.34058  0.82158  0.88080  Biso   1.000  N
  H61      1.0000 0.38380  0.78850  0.88740  Biso   1.000  H
  O19      1.0000 0.17337  0.57476  0.81270  Biso   1.000  O
  O20      1.0000 0.04744  0.60315  0.63340  Biso   1.000  O
  O21      1.0000 0.95233  0.86549  0.56690  Biso   1.000  O
  O22      1.0000 0.04087  0.95686  0.68100  Biso   1.000  O
  O23      1.0000 0.77977  0.94818  0.26730  Biso   1.000  O
  O24      1.0000 0.71111  0.92519  0.54270  Biso   1.000  O
  C86      1.0000 0.41800  0.77600  0.93300  Biso   1.000  C
  H62      1.0000 0.39820  0.73710  0.02230  Biso   1.000  H
  H63      1.0000 0.44080  0.75190  0.81530  Biso   1.000  H
  C87      1.0000 0.49290  0.81970  0.02600  Biso   1.000  C
  C88      1.0000 0.56500  0.85200  0.92100  Biso   1.000  C
  H64      1.0000 0.56490  0.84860  0.78480  Biso   1.000  H
  C89      1.0000 0.63600  0.88900  0.02100  Biso   1.000  C
  H65      1.0000 0.68360  0.91050  0.95070  Biso   1.000  H
  C90      1.0000 0.63510  0.89400  0.22400  Biso   1.000  C
  C91      1.0000 0.56340  0.86170  0.32900  Biso   1.000  C
  H66      1.0000 0.56300  0.86500  0.46520  Biso   1.000  H
  C92      1.0000 0.49230  0.82460  0.22900  Biso   1.000  C
  H67      1.0000 0.44430  0.80310  0.29930  Biso   1.000  H
  H68      1.0000 0.34310  0.86510  0.93590  Biso   1.000  H
  Cd5      1.0000 0.00000  0.00000  0.00000  Biso   1.000  Cd
  Cd6      1.0000 0.00000  0.50000  0.50000  Biso   1.000  Cd
