data_image0
_cell_length_a       9.0061
_cell_length_b       31.498
_cell_length_c       15.78
_cell_angle_alpha    90
_cell_angle_beta     90.584
_cell_angle_gamma    90

_symmetry_space_group_name_H-M    "P 1"
_symmetry_int_tables_number       1

loop_
  _symmetry_equiv_pos_as_xyz
  'x, y, z'

loop_
  _atom_site_label
  _atom_site_occupancy
  _atom_site_fract_x
  _atom_site_fract_y
  _atom_site_fract_z
  _atom_site_thermal_displace_type
  _atom_site_B_iso_or_equiv
  _atom_site_type_symbol
  Ni1      1.0000 0.29599  0.83636  0.47970  Biso   1.000  Ni
  N1       1.0000 0.10970  0.80180  0.51910  Biso   1.000  N
  C1       1.0000 0.95930  0.81450  0.50970  Biso   1.000  C
  H1       1.0000 0.92510  0.84270  0.50060  Biso   1.000  H
  C2       1.0000 0.86880  0.77780  0.51610  Biso   1.000  C
  H2       1.0000 0.76350  0.77710  0.51210  Biso   1.000  H
  N2       1.0000 0.96340  0.74230  0.52960  Biso   1.000  N
  C3       1.0000 0.11230  0.75710  0.53150  Biso   1.000  C
  H3       1.0000 0.19840  0.74010  0.53950  Biso   1.000  H
  C4       1.0000 0.91060  0.70088  0.53010  Biso   1.000  C
  C5       1.0000 0.96210  0.67329  0.59250  Biso   1.000  C
  H4       1.0000 0.02720  0.68330  0.63580  Biso   1.000  H
  C6       1.0000 0.91820  0.63097  0.59160  Biso   1.000  C
  H5       1.0000 0.95340  0.61210  0.63430  Biso   1.000  H
  C7       1.0000 0.82300  0.61625  0.52830  Biso   1.000  C
  C8       1.0000 0.77150  0.64385  0.46590  Biso   1.000  C
  H6       1.0000 0.70640  0.63380  0.42260  Biso   1.000  H
  C9       1.0000 0.81530  0.68616  0.46670  Biso   1.000  C
  H7       1.0000 0.78020  0.70500  0.42410  Biso   1.000  H
  C10      1.0000 0.78210  0.57052  0.52800  Biso   1.000  C
  C11      1.0000 0.71070  0.55296  0.59830  Biso   1.000  C
  H8       1.0000 0.68980  0.57030  0.64600  Biso   1.000  H
  C12      1.0000 0.67020  0.51015  0.59890  Biso   1.000  C
  C13      1.0000 0.70250  0.48526  0.52870  Biso   1.000  C
  H9       1.0000 0.67690  0.45600  0.52910  Biso   1.000  H
  C14      1.0000 0.77130  0.50222  0.45800  Biso   1.000  C
  C15      1.0000 0.81020  0.54485  0.45810  Biso   1.000  C
  H10      1.0000 0.85680  0.55670  0.40980  Biso   1.000  H
  C16      1.0000 0.59980  0.49127  0.67550  Biso   1.000  C
  C17      1.0000 0.61610  0.50966  0.75500  Biso   1.000  C
  H11      1.0000 0.66870  0.53570  0.76020  Biso   1.000  H
  C18      1.0000 0.55780  0.49099  0.82670  Biso   1.000  C
  H12      1.0000 0.57080  0.50420  0.88040  Biso   1.000  H
  C19      1.0000 0.48030  0.45300  0.82020  Biso   1.000  C
  C20      1.0000 0.45620  0.43501  0.74170  Biso   1.000  C
  H13      1.0000 0.39930  0.40970  0.73640  Biso   1.000  H
  C21      1.0000 0.51590  0.45412  0.67040  Biso   1.000  C
  H14      1.0000 0.49900  0.44150  0.61640  Biso   1.000  H
  C22      1.0000 0.40330  0.41487  0.02860  Biso   1.000  C
  H15      1.0000 0.41330  0.41380  0.08850  Biso   1.000  H
  C23      1.0000 0.47940  0.44093  0.97710  Biso   1.000  C
  H16      1.0000 0.55280  0.46100  0.99370  Biso   1.000  H
  C24      1.0000 0.32860  0.40161  0.90150  Biso   1.000  C
  H17      1.0000 0.27740  0.38950  0.85450  Biso   1.000  H
  C25      1.0000 0.80240  0.47552  0.38250  Biso   1.000  C
  C26      1.0000 0.93270  0.48161  0.33610  Biso   1.000  C
  H18      1.0000 0.00300  0.50220  0.35460  Biso   1.000  H
  C27      1.0000 0.96020  0.45827  0.26410  Biso   1.000  C
  H19      1.0000 0.04730  0.46350  0.23230  Biso   1.000  H
  C28      1.0000 0.86140  0.42731  0.23820  Biso   1.000  C
  C29      1.0000 0.73200  0.42003  0.28340  Biso   1.000  C
  H20      1.0000 0.66380  0.39880  0.26550  Biso   1.000  H
  C30      1.0000 0.70400  0.44424  0.35480  Biso   1.000  C
  H21      1.0000 0.61560  0.43940  0.38570  Biso   1.000  H
  C31      1.0000 0.87420  0.36509  0.04870  Biso   1.000  C
  H22      1.0000 0.83490  0.35120  0.00000  Biso   1.000  H
  C32      1.0000 0.79330  0.38591  0.10650  Biso   1.000  C
  H23      1.0000 0.68830  0.38880  0.10700  Biso   1.000  H
  C33      1.0000 0.02940  0.38970  0.14100  Biso   1.000  C
  H24      1.0000 0.11860  0.39640  0.17070  Biso   1.000  H
  C34      1.0000 0.14880  0.84471  0.29580  Biso   1.000  C
  C35      1.0000 0.09310  0.81147  0.23490  Biso   1.000  C
  C36      1.0000 0.03670  0.82262  0.15620  Biso   1.000  C
  H25      1.0000 0.03110  0.85180  0.14140  Biso   1.000  H
  C37      1.0000 0.98790  0.79238  0.09820  Biso   1.000  C
  C38      1.0000 0.99640  0.74879  0.12110  Biso   1.000  C
  C39      1.0000 0.05340  0.73794  0.19980  Biso   1.000  C
  H26      1.0000 0.05940  0.70880  0.21510  Biso   1.000  H
  C40      1.0000 0.10210  0.76839  0.25710  Biso   1.000  C
  H27      1.0000 0.14230  0.76030  0.31130  Biso   1.000  H
  C41      1.0000 0.94040  0.71495  0.06330  Biso   1.000  C
  N3       1.0000 0.30910  0.39000  0.98093  Biso   1.000  N
  N4       1.0000 0.43020  0.43282  0.89544  Biso   1.000  N
  N5       1.0000 0.02310  0.36696  0.07055  Biso   1.000  N
  N6       1.0000 0.89300  0.40224  0.16523  Biso   1.000  N
  N7       1.0000 0.92630  0.80625  0.01940  Biso   1.000  N
  O1       1.0000 0.20920  0.83011  0.36242  Biso   1.000  O
  O2       1.0000 0.13340  0.88292  0.27788  Biso   1.000  O
  O3       1.0000 0.91130  0.67835  0.09336  Biso   1.000  O
  O4       1.0000 0.91610  0.72294  0.98559  Biso   1.000  O
  C42      1.0000 0.93200  0.69990  0.52390  Biso   1.000  C
  C43      1.0000 0.03060  0.66800  0.54820  Biso   1.000  C
  H28      1.0000 0.12970  0.67500  0.56400  Biso   1.000  H
  C44      1.0000 0.98410  0.62600  0.54950  Biso   1.000  C
  H29      1.0000 0.05130  0.60420  0.56610  Biso   1.000  H
  C45      1.0000 0.83910  0.61570  0.52640  Biso   1.000  C
  C46      1.0000 0.74070  0.64760  0.50200  Biso   1.000  C
  H30      1.0000 0.64160  0.64060  0.48620  Biso   1.000  H
  C47      1.0000 0.78720  0.68960  0.50080  Biso   1.000  C
  H31      1.0000 0.72000  0.71140  0.48410  Biso   1.000  H
  N8       1.0000 0.11570  0.80020  0.51710  Biso   1.000  N
  C48      1.0000 0.98040  0.81480  0.55220  Biso   1.000  C
  H32      1.0000 0.95850  0.84320  0.56780  Biso   1.000  H
  C49      1.0000 0.88340  0.77950  0.55960  Biso   1.000  C
  H33      1.0000 0.78540  0.78010  0.58120  Biso   1.000  H
  N9       1.0000 0.95880  0.74300  0.52920  Biso   1.000  N
  C50      1.0000 0.10240  0.75580  0.50290  Biso   1.000  C
  H34      1.0000 0.17650  0.73790  0.47990  Biso   1.000  H
  H35      1.0000 0.94910  0.80060  0.04370  Biso   1.000  H
  N10      1.0000 0.13300  0.74760  0.34400  Biso   1.000  N
  Ni2      1.0000 0.20401  0.33636  0.02030  Biso   1.000  Ni
  N11      1.0000 0.39030  0.30180  0.98090  Biso   1.000  N
  C51      1.0000 0.54070  0.31450  0.99030  Biso   1.000  C
  H36      1.0000 0.57490  0.34270  0.99940  Biso   1.000  H
  C52      1.0000 0.63120  0.27780  0.98390  Biso   1.000  C
  H37      1.0000 0.73650  0.27710  0.98790  Biso   1.000  H
  N12      1.0000 0.53660  0.24230  0.97040  Biso   1.000  N
  C53      1.0000 0.38770  0.25710  0.96850  Biso   1.000  C
  H38      1.0000 0.30160  0.24010  0.96050  Biso   1.000  H
  C54      1.0000 0.58940  0.20088  0.96990  Biso   1.000  C
  C55      1.0000 0.53790  0.17329  0.90750  Biso   1.000  C
  H39      1.0000 0.47280  0.18330  0.86420  Biso   1.000  H
  C56      1.0000 0.58180  0.13097  0.90840  Biso   1.000  C
  H40      1.0000 0.54660  0.11210  0.86570  Biso   1.000  H
  C57      1.0000 0.67700  0.11625  0.97170  Biso   1.000  C
  C58      1.0000 0.72850  0.14385  0.03410  Biso   1.000  C
  H41      1.0000 0.79360  0.13380  0.07740  Biso   1.000  H
  C59      1.0000 0.68470  0.18616  0.03330  Biso   1.000  C
  H42      1.0000 0.71980  0.20500  0.07590  Biso   1.000  H
  C60      1.0000 0.71790  0.07052  0.97200  Biso   1.000  C
  C61      1.0000 0.78930  0.05296  0.90170  Biso   1.000  C
  H43      1.0000 0.81020  0.07030  0.85400  Biso   1.000  H
  C62      1.0000 0.82980  0.01015  0.90110  Biso   1.000  C
  C63      1.0000 0.79750  0.98526  0.97130  Biso   1.000  C
  H44      1.0000 0.82310  0.95600  0.97090  Biso   1.000  H
  C64      1.0000 0.72870  0.00222  0.04200  Biso   1.000  C
  C65      1.0000 0.68980  0.04485  0.04190  Biso   1.000  C
  H45      1.0000 0.64320  0.05670  0.09020  Biso   1.000  H
  C66      1.0000 0.90020  0.99127  0.82450  Biso   1.000  C
  C67      1.0000 0.88390  0.00966  0.74500  Biso   1.000  C
  H46      1.0000 0.83130  0.03570  0.73980  Biso   1.000  H
  C68      1.0000 0.94220  0.99099  0.67330  Biso   1.000  C
  H47      1.0000 0.92920  0.00420  0.61960  Biso   1.000  H
  C69      1.0000 0.01970  0.95300  0.67980  Biso   1.000  C
  C70      1.0000 0.04380  0.93501  0.75830  Biso   1.000  C
  H48      1.0000 0.10070  0.90970  0.76360  Biso   1.000  H
  C71      1.0000 0.98410  0.95412  0.82960  Biso   1.000  C
  H49      1.0000 0.00100  0.94150  0.88360  Biso   1.000  H
  C72      1.0000 0.09670  0.91487  0.47140  Biso   1.000  C
  H50      1.0000 0.08670  0.91380  0.41150  Biso   1.000  H
  C73      1.0000 0.02060  0.94093  0.52290  Biso   1.000  C
  H51      1.0000 0.94720  0.96100  0.50630  Biso   1.000  H
  C74      1.0000 0.17140  0.90161  0.59850  Biso   1.000  C
  H52      1.0000 0.22260  0.88950  0.64550  Biso   1.000  H
  C75      1.0000 0.69760  0.97552  0.11750  Biso   1.000  C
  C76      1.0000 0.56730  0.98161  0.16390  Biso   1.000  C
  H53      1.0000 0.49700  0.00220  0.14540  Biso   1.000  H
  C77      1.0000 0.53980  0.95827  0.23590  Biso   1.000  C
  H54      1.0000 0.45270  0.96350  0.26770  Biso   1.000  H
  C78      1.0000 0.63860  0.92731  0.26180  Biso   1.000  C
  C79      1.0000 0.76800  0.92003  0.21660  Biso   1.000  C
  H55      1.0000 0.83620  0.89880  0.23450  Biso   1.000  H
  C80      1.0000 0.79600  0.94424  0.14520  Biso   1.000  C
  H56      1.0000 0.88440  0.93940  0.11430  Biso   1.000  H
  C81      1.0000 0.62580  0.86509  0.45130  Biso   1.000  C
  H57      1.0000 0.66510  0.85120  0.50000  Biso   1.000  H
  C82      1.0000 0.70670  0.88591  0.39350  Biso   1.000  C
  H58      1.0000 0.81170  0.88880  0.39300  Biso   1.000  H
  C83      1.0000 0.47060  0.88970  0.35900  Biso   1.000  C
  H59      1.0000 0.38140  0.89640  0.32930  Biso   1.000  H
  C84      1.0000 0.35120  0.34471  0.20420  Biso   1.000  C
  C85      1.0000 0.40690  0.31147  0.26510  Biso   1.000  C
  C86      1.0000 0.46330  0.32262  0.34380  Biso   1.000  C
  H60      1.0000 0.46890  0.35180  0.35860  Biso   1.000  H
  C87      1.0000 0.51210  0.29238  0.40180  Biso   1.000  C
  C88      1.0000 0.50360  0.24879  0.37890  Biso   1.000  C
  C89      1.0000 0.44660  0.23794  0.30020  Biso   1.000  C
  H61      1.0000 0.44060  0.20880  0.28490  Biso   1.000  H
  C90      1.0000 0.39790  0.26839  0.24290  Biso   1.000  C
  H62      1.0000 0.35770  0.26030  0.18870  Biso   1.000  H
  C91      1.0000 0.55960  0.21495  0.43670  Biso   1.000  C
  N13      1.0000 0.19090  0.89000  0.51907  Biso   1.000  N
  N14      1.0000 0.06980  0.93282  0.60456  Biso   1.000  N
  N15      1.0000 0.47690  0.86696  0.42945  Biso   1.000  N
  N16      1.0000 0.60700  0.90224  0.33477  Biso   1.000  N
  N17      1.0000 0.57370  0.30625  0.48060  Biso   1.000  N
  O5       1.0000 0.29080  0.33011  0.13758  Biso   1.000  O
  O6       1.0000 0.36660  0.38292  0.22212  Biso   1.000  O
  O7       1.0000 0.58870  0.17835  0.40664  Biso   1.000  O
  O8       1.0000 0.58390  0.22294  0.51441  Biso   1.000  O
  C92      1.0000 0.56800  0.19990  0.97610  Biso   1.000  C
  C93      1.0000 0.46940  0.16800  0.95180  Biso   1.000  C
  H63      1.0000 0.37030  0.17500  0.93600  Biso   1.000  H
  C94      1.0000 0.51590  0.12600  0.95050  Biso   1.000  C
  H64      1.0000 0.44870  0.10420  0.93390  Biso   1.000  H
  C95      1.0000 0.66090  0.11570  0.97360  Biso   1.000  C
  C96      1.0000 0.75930  0.14760  0.99800  Biso   1.000  C
  H65      1.0000 0.85840  0.14060  0.01380  Biso   1.000  H
  C97      1.0000 0.71280  0.18960  0.99920  Biso   1.000  C
  H66      1.0000 0.78000  0.21140  0.01590  Biso   1.000  H
  N18      1.0000 0.38430  0.30020  0.98290  Biso   1.000  N
  C98      1.0000 0.51960  0.31480  0.94780  Biso   1.000  C
  H67      1.0000 0.54150  0.34320  0.93220  Biso   1.000  H
  C99      1.0000 0.61660  0.27950  0.94040  Biso   1.000  C
  H68      1.0000 0.71460  0.28010  0.91880  Biso   1.000  H
  N19      1.0000 0.54120  0.24300  0.97080  Biso   1.000  N
  C100     1.0000 0.39760  0.25580  0.99710  Biso   1.000  C
  H69      1.0000 0.32350  0.23790  0.02010  Biso   1.000  H
  H70      1.0000 0.55090  0.30060  0.45630  Biso   1.000  H
  N20      1.0000 0.36700  0.24760  0.15600  Biso   1.000  N
  Ni3      1.0000 0.70401  0.16364  0.52030  Biso   1.000  Ni
  N21      1.0000 0.89030  0.19820  0.48090  Biso   1.000  N
  C101     1.0000 0.04070  0.18550  0.49030  Biso   1.000  C
  H71      1.0000 0.07490  0.15730  0.49940  Biso   1.000  H
  C102     1.0000 0.13120  0.22220  0.48390  Biso   1.000  C
  H72      1.0000 0.23650  0.22290  0.48790  Biso   1.000  H
  N22      1.0000 0.03660  0.25770  0.47040  Biso   1.000  N
  C103     1.0000 0.88770  0.24290  0.46850  Biso   1.000  C
  H73      1.0000 0.80160  0.25990  0.46050  Biso   1.000  H
  C104     1.0000 0.08940  0.29912  0.46990  Biso   1.000  C
  C105     1.0000 0.03790  0.32671  0.40750  Biso   1.000  C
  H74      1.0000 0.97280  0.31670  0.36420  Biso   1.000  H
  C106     1.0000 0.08180  0.36903  0.40840  Biso   1.000  C
  H75      1.0000 0.04660  0.38790  0.36570  Biso   1.000  H
  C107     1.0000 0.17700  0.38375  0.47170  Biso   1.000  C
  C108     1.0000 0.22850  0.35615  0.53410  Biso   1.000  C
  H76      1.0000 0.29360  0.36620  0.57740  Biso   1.000  H
  C109     1.0000 0.18470  0.31384  0.53330  Biso   1.000  C
  H77      1.0000 0.21980  0.29500  0.57590  Biso   1.000  H
  C110     1.0000 0.21790  0.42948  0.47200  Biso   1.000  C
  C111     1.0000 0.28930  0.44704  0.40170  Biso   1.000  C
  H78      1.0000 0.31020  0.42970  0.35400  Biso   1.000  H
  C112     1.0000 0.32980  0.48985  0.40110  Biso   1.000  C
  C113     1.0000 0.29750  0.51474  0.47130  Biso   1.000  C
  H79      1.0000 0.32310  0.54400  0.47090  Biso   1.000  H
  C114     1.0000 0.22870  0.49778  0.54200  Biso   1.000  C
  C115     1.0000 0.18980  0.45515  0.54190  Biso   1.000  C
  H80      1.0000 0.14320  0.44330  0.59020  Biso   1.000  H
  C116     1.0000 0.40020  0.50873  0.32450  Biso   1.000  C
  C117     1.0000 0.38390  0.49034  0.24500  Biso   1.000  C
  H81      1.0000 0.33130  0.46430  0.23980  Biso   1.000  H
  C118     1.0000 0.44220  0.50901  0.17330  Biso   1.000  C
  H82      1.0000 0.42920  0.49580  0.11960  Biso   1.000  H
  C119     1.0000 0.51970  0.54700  0.17980  Biso   1.000  C
  C120     1.0000 0.54380  0.56499  0.25830  Biso   1.000  C
  H83      1.0000 0.60070  0.59030  0.26360  Biso   1.000  H
  C121     1.0000 0.48410  0.54588  0.32960  Biso   1.000  C
  H84      1.0000 0.50100  0.55850  0.38360  Biso   1.000  H
  C122     1.0000 0.59670  0.58513  0.97140  Biso   1.000  C
  H85      1.0000 0.58670  0.58620  0.91150  Biso   1.000  H
  C123     1.0000 0.52060  0.55907  0.02290  Biso   1.000  C
  H86      1.0000 0.44720  0.53900  0.00630  Biso   1.000  H
  C124     1.0000 0.67140  0.59839  0.09850  Biso   1.000  C
  H87      1.0000 0.72260  0.61050  0.14550  Biso   1.000  H
  C125     1.0000 0.19760  0.52448  0.61750  Biso   1.000  C
  C126     1.0000 0.06730  0.51839  0.66390  Biso   1.000  C
  H88      1.0000 0.99700  0.49780  0.64540  Biso   1.000  H
  C127     1.0000 0.03980  0.54173  0.73590  Biso   1.000  C
  H89      1.0000 0.95270  0.53650  0.76770  Biso   1.000  H
  C128     1.0000 0.13860  0.57269  0.76180  Biso   1.000  C
  C129     1.0000 0.26800  0.57997  0.71660  Biso   1.000  C
  H90      1.0000 0.33620  0.60120  0.73450  Biso   1.000  H
  C130     1.0000 0.29600  0.55576  0.64520  Biso   1.000  C
  H91      1.0000 0.38440  0.56060  0.61430  Biso   1.000  H
  C131     1.0000 0.12580  0.63491  0.95130  Biso   1.000  C
  H92      1.0000 0.16510  0.64880  0.00000  Biso   1.000  H
  C132     1.0000 0.20670  0.61409  0.89350  Biso   1.000  C
  H93      1.0000 0.31170  0.61120  0.89300  Biso   1.000  H
  C133     1.0000 0.97060  0.61030  0.85900  Biso   1.000  C
  H94      1.0000 0.88140  0.60360  0.82930  Biso   1.000  H
  C134     1.0000 0.85120  0.15529  0.70420  Biso   1.000  C
  C135     1.0000 0.90690  0.18853  0.76510  Biso   1.000  C
  C136     1.0000 0.96330  0.17738  0.84380  Biso   1.000  C
  H95      1.0000 0.96890  0.14820  0.85860  Biso   1.000  H
  C137     1.0000 0.01210  0.20762  0.90180  Biso   1.000  C
  C138     1.0000 0.00360  0.25121  0.87890  Biso   1.000  C
  C139     1.0000 0.94660  0.26206  0.80020  Biso   1.000  C
  H96      1.0000 0.94060  0.29120  0.78490  Biso   1.000  H
  C140     1.0000 0.89790  0.23161  0.74290  Biso   1.000  C
  H97      1.0000 0.85770  0.23970  0.68870  Biso   1.000  H
  C141     1.0000 0.05960  0.28505  0.93670  Biso   1.000  C
  N23      1.0000 0.69090  0.61000  0.01907  Biso   1.000  N
  N24      1.0000 0.56980  0.56718  0.10456  Biso   1.000  N
  N25      1.0000 0.97690  0.63304  0.92945  Biso   1.000  N
  N26      1.0000 0.10700  0.59776  0.83477  Biso   1.000  N
  N27      1.0000 0.07370  0.19375  0.98060  Biso   1.000  N
  O9       1.0000 0.79080  0.16989  0.63758  Biso   1.000  O
  O10      1.0000 0.86660  0.11708  0.72212  Biso   1.000  O
  O11      1.0000 0.08870  0.32165  0.90664  Biso   1.000  O
  O12      1.0000 0.08390  0.27706  0.01441  Biso   1.000  O
  C142     1.0000 0.06800  0.30010  0.47610  Biso   1.000  C
  C143     1.0000 0.96940  0.33200  0.45180  Biso   1.000  C
  H98      1.0000 0.87030  0.32500  0.43600  Biso   1.000  H
  C144     1.0000 0.01590  0.37400  0.45050  Biso   1.000  C
  H99      1.0000 0.94870  0.39580  0.43390  Biso   1.000  H
  C145     1.0000 0.16090  0.38430  0.47360  Biso   1.000  C
  C146     1.0000 0.25930  0.35240  0.49800  Biso   1.000  C
  H100     1.0000 0.35840  0.35940  0.51380  Biso   1.000  H
  C147     1.0000 0.21280  0.31040  0.49920  Biso   1.000  C
  H101     1.0000 0.28000  0.28860  0.51590  Biso   1.000  H
  N28      1.0000 0.88430  0.19980  0.48290  Biso   1.000  N
  C148     1.0000 0.01960  0.18520  0.44780  Biso   1.000  C
  H102     1.0000 0.04150  0.15680  0.43220  Biso   1.000  H
  C149     1.0000 0.11660  0.22050  0.44040  Biso   1.000  C
  H103     1.0000 0.21460  0.21990  0.41880  Biso   1.000  H
  N29      1.0000 0.04120  0.25700  0.47080  Biso   1.000  N
  C150     1.0000 0.89760  0.24420  0.49710  Biso   1.000  C
  H104     1.0000 0.82350  0.26210  0.52010  Biso   1.000  H
  H105     1.0000 0.05090  0.19940  0.95630  Biso   1.000  H
  N30      1.0000 0.86700  0.25240  0.65600  Biso   1.000  N
  Ni4      1.0000 0.79599  0.66364  0.97970  Biso   1.000  Ni
  N31      1.0000 0.60970  0.69820  0.01910  Biso   1.000  N
  C151     1.0000 0.45930  0.68550  0.00970  Biso   1.000  C
  H106     1.0000 0.42510  0.65730  0.00060  Biso   1.000  H
  C152     1.0000 0.36880  0.72220  0.01610  Biso   1.000  C
  H107     1.0000 0.26350  0.72290  0.01210  Biso   1.000  H
  N32      1.0000 0.46340  0.75770  0.02960  Biso   1.000  N
  C153     1.0000 0.61230  0.74290  0.03150  Biso   1.000  C
  H108     1.0000 0.69840  0.75990  0.03950  Biso   1.000  H
  C154     1.0000 0.41060  0.79912  0.03010  Biso   1.000  C
  C155     1.0000 0.46210  0.82671  0.09250  Biso   1.000  C
  H109     1.0000 0.52720  0.81670  0.13580  Biso   1.000  H
  C156     1.0000 0.41820  0.86903  0.09160  Biso   1.000  C
  H110     1.0000 0.45340  0.88790  0.13430  Biso   1.000  H
  C157     1.0000 0.32300  0.88375  0.02830  Biso   1.000  C
  C158     1.0000 0.27150  0.85615  0.96590  Biso   1.000  C
  H111     1.0000 0.20640  0.86620  0.92260  Biso   1.000  H
  C159     1.0000 0.31530  0.81384  0.96670  Biso   1.000  C
  H112     1.0000 0.28020  0.79500  0.92410  Biso   1.000  H
  C160     1.0000 0.28210  0.92948  0.02800  Biso   1.000  C
  C161     1.0000 0.21070  0.94704  0.09830  Biso   1.000  C
  H113     1.0000 0.18980  0.92970  0.14600  Biso   1.000  H
  C162     1.0000 0.17020  0.98985  0.09890  Biso   1.000  C
  C163     1.0000 0.20250  0.01474  0.02870  Biso   1.000  C
  H114     1.0000 0.17690  0.04400  0.02910  Biso   1.000  H
  C164     1.0000 0.27130  0.99778  0.95800  Biso   1.000  C
  C165     1.0000 0.31020  0.95515  0.95810  Biso   1.000  C
  H115     1.0000 0.35680  0.94330  0.90980  Biso   1.000  H
  C166     1.0000 0.09980  0.00873  0.17550  Biso   1.000  C
  C167     1.0000 0.11610  0.99034  0.25500  Biso   1.000  C
  H116     1.0000 0.16870  0.96430  0.26020  Biso   1.000  H
  C168     1.0000 0.05780  0.00901  0.32670  Biso   1.000  C
  H117     1.0000 0.07080  0.99580  0.38040  Biso   1.000  H
  C169     1.0000 0.98030  0.04700  0.32020  Biso   1.000  C
  C170     1.0000 0.95620  0.06499  0.24170  Biso   1.000  C
  H118     1.0000 0.89930  0.09030  0.23640  Biso   1.000  H
  C171     1.0000 0.01590  0.04588  0.17040  Biso   1.000  C
  H119     1.0000 0.99900  0.05850  0.11640  Biso   1.000  H
  C172     1.0000 0.90330  0.08513  0.52860  Biso   1.000  C
  H120     1.0000 0.91330  0.08620  0.58850  Biso   1.000  H
  C173     1.0000 0.97940  0.05907  0.47710  Biso   1.000  C
  H121     1.0000 0.05280  0.03900  0.49370  Biso   1.000  H
  C174     1.0000 0.82860  0.09839  0.40150  Biso   1.000  C
  H122     1.0000 0.77740  0.11050  0.35450  Biso   1.000  H
  C175     1.0000 0.30240  0.02448  0.88250  Biso   1.000  C
  C176     1.0000 0.43270  0.01839  0.83610  Biso   1.000  C
  H123     1.0000 0.50300  0.99780  0.85460  Biso   1.000  H
  C177     1.0000 0.46020  0.04173  0.76410  Biso   1.000  C
  H124     1.0000 0.54730  0.03650  0.73230  Biso   1.000  H
  C178     1.0000 0.36140  0.07269  0.73820  Biso   1.000  C
  C179     1.0000 0.23200  0.07997  0.78340  Biso   1.000  C
  H125     1.0000 0.16380  0.10120  0.76550  Biso   1.000  H
  C180     1.0000 0.20400  0.05576  0.85480  Biso   1.000  C
  H126     1.0000 0.11560  0.06060  0.88570  Biso   1.000  H
  C181     1.0000 0.37420  0.13491  0.54870  Biso   1.000  C
  H127     1.0000 0.33490  0.14880  0.50000  Biso   1.000  H
  C182     1.0000 0.29330  0.11409  0.60650  Biso   1.000  C
  H128     1.0000 0.18830  0.11120  0.60700  Biso   1.000  H
  C183     1.0000 0.52940  0.11030  0.64100  Biso   1.000  C
  H129     1.0000 0.61860  0.10360  0.67070  Biso   1.000  H
  C184     1.0000 0.64880  0.65529  0.79580  Biso   1.000  C
  C185     1.0000 0.59310  0.68853  0.73490  Biso   1.000  C
  C186     1.0000 0.53670  0.67738  0.65620  Biso   1.000  C
  H130     1.0000 0.53110  0.64820  0.64140  Biso   1.000  H
  C187     1.0000 0.48790  0.70762  0.59820  Biso   1.000  C
  C188     1.0000 0.49640  0.75121  0.62110  Biso   1.000  C
  C189     1.0000 0.55340  0.76206  0.69980  Biso   1.000  C
  H131     1.0000 0.55940  0.79120  0.71510  Biso   1.000  H
  C190     1.0000 0.60210  0.73161  0.75710  Biso   1.000  C
  H132     1.0000 0.64230  0.73970  0.81130  Biso   1.000  H
  C191     1.0000 0.44040  0.78505  0.56330  Biso   1.000  C
  N33      1.0000 0.80910  0.11000  0.48093  Biso   1.000  N
  N34      1.0000 0.93020  0.06718  0.39544  Biso   1.000  N
  N35      1.0000 0.52310  0.13304  0.57055  Biso   1.000  N
  N36      1.0000 0.39300  0.09776  0.66523  Biso   1.000  N
  N37      1.0000 0.42630  0.69375  0.51940  Biso   1.000  N
  O13      1.0000 0.70920  0.66989  0.86242  Biso   1.000  O
  O14      1.0000 0.63340  0.61708  0.77788  Biso   1.000  O
  O15      1.0000 0.41130  0.82165  0.59336  Biso   1.000  O
  O16      1.0000 0.41610  0.77706  0.48559  Biso   1.000  O
  C192     1.0000 0.43200  0.80010  0.02390  Biso   1.000  C
  C193     1.0000 0.53060  0.83200  0.04820  Biso   1.000  C
  H133     1.0000 0.62970  0.82500  0.06400  Biso   1.000  H
  C194     1.0000 0.48410  0.87400  0.04950  Biso   1.000  C
  H134     1.0000 0.55130  0.89580  0.06610  Biso   1.000  H
  C195     1.0000 0.33910  0.88430  0.02640  Biso   1.000  C
  C196     1.0000 0.24070  0.85240  0.00200  Biso   1.000  C
  H135     1.0000 0.14160  0.85940  0.98620  Biso   1.000  H
  C197     1.0000 0.28720  0.81040  0.00080  Biso   1.000  C
  H136     1.0000 0.22000  0.78860  0.98410  Biso   1.000  H
  N38      1.0000 0.61570  0.69980  0.01710  Biso   1.000  N
  C198     1.0000 0.48040  0.68520  0.05220  Biso   1.000  C
  H137     1.0000 0.45850  0.65680  0.06780  Biso   1.000  H
  C199     1.0000 0.38340  0.72050  0.05960  Biso   1.000  C
  H138     1.0000 0.28540  0.71990  0.08120  Biso   1.000  H
  N39      1.0000 0.45880  0.75700  0.02920  Biso   1.000  N
  C200     1.0000 0.60240  0.74420  0.00290  Biso   1.000  C
  H139     1.0000 0.67650  0.76210  0.97990  Biso   1.000  H
  H140     1.0000 0.44910  0.69940  0.54370  Biso   1.000  H
  N40      1.0000 0.63300  0.75240  0.84400  Biso   1.000  N
