data_image0
_cell_length_a       21.585
_cell_length_b       13.4043
_cell_length_c       22.089
_cell_angle_alpha    90
_cell_angle_beta     110.814
_cell_angle_gamma    90

_symmetry_space_group_name_H-M    "P 1"
_symmetry_int_tables_number       1

loop_
  _symmetry_equiv_pos_as_xyz
  'x, y, z'

loop_
  _atom_site_label
  _atom_site_occupancy
  _atom_site_fract_x
  _atom_site_fract_y
  _atom_site_fract_z
  _atom_site_thermal_displace_type
  _atom_site_B_iso_or_equiv
  _atom_site_type_symbol
  Ag1      1.0000 0.92939  0.20117  0.07035  Biso   1.000  Ag
  N1       1.0000 0.97650  0.06990  0.02680  Biso   1.000  N
  C1       1.0000 0.78270  0.23150  0.06880  Biso   1.000  C
  H1       1.0000 0.80260  0.27260  0.10820  Biso   1.000  H
  H2       1.0000 0.78720  0.16040  0.08190  Biso   1.000  H
  C2       1.0000 0.48500  0.97700  0.92100  Biso   1.000  C
  H3       1.0000 0.50490  0.93010  0.89970  Biso   1.000  H
  H4       1.0000 0.43900  0.99080  0.89330  Biso   1.000  H
  H5       1.0000 0.48520  0.94820  0.96220  Biso   1.000  H
  Ag2      1.0000 0.57844  0.32430  0.92262  Biso   1.000  Ag
  N2       1.0000 0.47510  0.30500  0.68370  Biso   1.000  N
  N3       1.0000 0.81800  0.24980  0.02330  Biso   1.000  N
  N4       1.0000 0.69310  0.29640  0.97040  Biso   1.000  N
  C3       1.0000 0.43520  0.25500  0.71570  Biso   1.000  C
  H6       1.0000 0.39150  0.28850  0.70310  Biso   1.000  H
  H7       1.0000 0.42750  0.18520  0.70040  Biso   1.000  H
  N5       1.0000 0.52840  0.31400  0.81040  Biso   1.000  N
  C4       1.0000 0.54100  0.26900  0.70500  Biso   1.000  C
  H8       1.0000 0.54110  0.19910  0.68980  Biso   1.000  H
  H9       1.0000 0.56780  0.30970  0.68630  Biso   1.000  H
  N6       1.0000 0.52610  0.43500  0.97320  Biso   1.000  N
  C5       1.0000 0.70920  0.25800  0.03640  Biso   1.000  C
  H10      1.0000 0.68220  0.19750  0.03490  Biso   1.000  H
  H11      1.0000 0.69720  0.30860  0.06290  Biso   1.000  H
  N7       1.0000 0.54400  0.16700  0.95620  Biso   1.000  N
  C6       1.0000 0.73570  0.38330  0.97260  Biso   1.000  C
  H12      1.0000 0.72390  0.43820  0.99660  Biso   1.000  H
  H13      1.0000 0.72770  0.40670  0.92800  Biso   1.000  H
  N8       1.0000 0.98980  0.33250  0.04400  Biso   1.000  N
  C7       1.0000 0.80810  0.35760  0.00540  Biso   1.000  C
  H14      1.0000 0.83210  0.37390  0.97590  Biso   1.000  H
  H15      1.0000 0.82710  0.39870  0.04490  Biso   1.000  H
  C8       1.0000 0.78540  0.19040  0.96440  Biso   1.000  C
  H16      1.0000 0.79090  0.11860  0.97560  Biso   1.000  H
  H17      1.0000 0.80730  0.20370  0.93270  Biso   1.000  H
  C9       1.0000 0.71210  0.21430  0.93370  Biso   1.000  C
  H18      1.0000 0.70190  0.23510  0.88820  Biso   1.000  H
  H19      1.0000 0.68580  0.15370  0.93360  Biso   1.000  H
  C10      1.0000 0.51600  0.41300  0.78150  Biso   1.000  C
  H20      1.0000 0.55850  0.44930  0.79280  Biso   1.000  H
  H21      1.0000 0.48740  0.45060  0.80020  Biso   1.000  H
  C11      1.0000 0.48200  0.41000  0.70740  Biso   1.000  C
  H22      1.0000 0.43790  0.44180  0.69470  Biso   1.000  H
  H23      1.0000 0.50900  0.44860  0.68720  Biso   1.000  H
  C12      1.0000 0.46810  0.25600  0.79120  Biso   1.000  C
  H24      1.0000 0.43710  0.28460  0.81030  Biso   1.000  H
  H25      1.0000 0.47840  0.18650  0.80720  Biso   1.000  H
  C13      1.0000 0.57270  0.27200  0.78120  Biso   1.000  C
  H26      1.0000 0.58460  0.20290  0.79780  Biso   1.000  H
  H27      1.0000 0.61390  0.31150  0.79420  Biso   1.000  H
  C14      1.0000 0.46200  0.44700  0.94150  Biso   1.000  C
  H28      1.0000 0.43900  0.38280  0.94100  Biso   1.000  H
  H29      1.0000 0.45470  0.46530  0.89610  Biso   1.000  H
  C15      1.0000 0.52900  0.55000  0.93720  Biso   1.000  C
  H30      1.0000 0.57510  0.57080  0.94550  Biso   1.000  H
  H31      1.0000 0.50470  0.54740  0.88990  Biso   1.000  H
  C16      1.0000 0.49300  0.62800  0.97100  Biso   1.000  C
  H32      1.0000 0.45210  0.65550  0.93830  Biso   1.000  H
  H33      1.0000 0.52290  0.68390  0.99130  Biso   1.000  H
  C17      1.0000 0.43240  0.52700  0.97170  Biso   1.000  C
  H34      1.0000 0.41570  0.58150  0.94000  Biso   1.000  H
  H35      1.0000 0.39390  0.49790  0.97990  Biso   1.000  H
  C18      1.0000 0.03100  0.36910  0.03510  Biso   1.000  C
  C19      1.0000 0.08880  0.41600  0.02180  Biso   1.000  C
  H36      1.0000 0.09490  0.38170  0.98500  Biso   1.000  H
  H37      1.0000 0.12910  0.40860  0.06020  Biso   1.000  H
  H38      1.0000 0.07980  0.48640  0.01160  Biso   1.000  H
  C20      1.0000 0.52600  0.08000  0.93600  Biso   1.000  C
  C21      1.0000 0.03400  0.09600  0.01600  Biso   1.000  C
  H39      1.0000 0.07020  0.10630  0.05780  Biso   1.000  H
  H40      1.0000 0.02640  0.16080  0.99220  Biso   1.000  H
  C22      1.0000 0.92500  0.02500  0.97090  Biso   1.000  C
  H41      1.0000 0.90700  0.07680  0.93700  Biso   1.000  H
  H42      1.0000 0.88830  0.00170  0.98420  Biso   1.000  H
  C23      1.0000 0.00300  0.97200  0.07260  Biso   1.000  C
  H43      1.0000 0.03470  0.99380  0.11500  Biso   1.000  H
  H44      1.0000 0.96450  0.94100  0.08040  Biso   1.000  H
  C24      1.0000 0.96400  0.10800  0.95700  Biso   1.000  C
  H45      1.0000 0.98390  0.17420  0.95760  Biso   1.000  H
  H46      1.0000 0.91570  0.11180  0.93180  Biso   1.000  H
  C25      1.0000 0.94360  0.98200  0.02400  Biso   1.000  C
  H47      1.0000 0.89520  0.99310  0.00360  Biso   1.000  H
  H48      1.0000 0.95270  0.95650  0.06850  Biso   1.000  H
  C26      1.0000 0.04820  0.06500  0.05860  Biso   1.000  C
  H49      1.0000 0.05980  0.05550  0.10580  Biso   1.000  H
  H50      1.0000 0.06860  0.12810  0.05150  Biso   1.000  H
  Ag3      1.0000 0.57061  0.70117  0.42965  Biso   1.000  Ag
  N9       1.0000 0.52350  0.56990  0.47320  Biso   1.000  N
  C27      1.0000 0.71730  0.73150  0.43120  Biso   1.000  C
  H51      1.0000 0.69740  0.77260  0.39180  Biso   1.000  H
  H52      1.0000 0.71280  0.66040  0.41810  Biso   1.000  H
  C28      1.0000 0.01500  0.47700  0.57900  Biso   1.000  C
  H53      1.0000 0.99510  0.43010  0.60030  Biso   1.000  H
  H54      1.0000 0.06100  0.49080  0.60670  Biso   1.000  H
  H55      1.0000 0.01480  0.44820  0.53780  Biso   1.000  H
  Ag4      1.0000 0.92156  0.82430  0.57738  Biso   1.000  Ag
  N10      1.0000 0.02490  0.80500  0.81630  Biso   1.000  N
  N11      1.0000 0.68200  0.74980  0.47670  Biso   1.000  N
  N12      1.0000 0.80690  0.79640  0.52960  Biso   1.000  N
  C29      1.0000 0.06480  0.75500  0.78430  Biso   1.000  C
  H56      1.0000 0.10850  0.78850  0.79690  Biso   1.000  H
  H57      1.0000 0.07250  0.68520  0.79960  Biso   1.000  H
  N13      1.0000 0.97160  0.81400  0.68960  Biso   1.000  N
  C30      1.0000 0.95900  0.76900  0.79500  Biso   1.000  C
  H58      1.0000 0.95890  0.69910  0.81020  Biso   1.000  H
  H59      1.0000 0.93220  0.80970  0.81370  Biso   1.000  H
  N14      1.0000 0.97390  0.93500  0.52680  Biso   1.000  N
  C31      1.0000 0.79080  0.75800  0.46360  Biso   1.000  C
  H60      1.0000 0.81780  0.69750  0.46510  Biso   1.000  H
  H61      1.0000 0.80280  0.80860  0.43710  Biso   1.000  H
  N15      1.0000 0.95600  0.66700  0.54380  Biso   1.000  N
  C32      1.0000 0.76430  0.88330  0.52740  Biso   1.000  C
  H62      1.0000 0.77610  0.93820  0.50340  Biso   1.000  H
  H63      1.0000 0.77230  0.90670  0.57200  Biso   1.000  H
  N16      1.0000 0.51020  0.83250  0.45600  Biso   1.000  N
  C33      1.0000 0.69190  0.85760  0.49460  Biso   1.000  C
  H64      1.0000 0.66790  0.87390  0.52410  Biso   1.000  H
  H65      1.0000 0.67290  0.89870  0.45510  Biso   1.000  H
  C34      1.0000 0.71460  0.69040  0.53560  Biso   1.000  C
  H66      1.0000 0.70910  0.61860  0.52440  Biso   1.000  H
  H67      1.0000 0.69270  0.70370  0.56730  Biso   1.000  H
  C35      1.0000 0.78790  0.71430  0.56630  Biso   1.000  C
  H68      1.0000 0.79810  0.73510  0.61180  Biso   1.000  H
  H69      1.0000 0.81420  0.65370  0.56640  Biso   1.000  H
  C36      1.0000 0.98400  0.91300  0.71850  Biso   1.000  C
  H70      1.0000 0.94150  0.94930  0.70720  Biso   1.000  H
  H71      1.0000 0.01260  0.95060  0.69980  Biso   1.000  H
  C37      1.0000 0.01800  0.91000  0.79260  Biso   1.000  C
  H72      1.0000 0.06210  0.94180  0.80530  Biso   1.000  H
  H73      1.0000 0.99100  0.94860  0.81280  Biso   1.000  H
  C38      1.0000 0.03190  0.75600  0.70880  Biso   1.000  C
  H74      1.0000 0.06290  0.78460  0.68970  Biso   1.000  H
  H75      1.0000 0.02160  0.68650  0.69280  Biso   1.000  H
  C39      1.0000 0.92730  0.77200  0.71880  Biso   1.000  C
  H76      1.0000 0.91540  0.70290  0.70220  Biso   1.000  H
  H77      1.0000 0.88610  0.81150  0.70580  Biso   1.000  H
  C40      1.0000 0.03800  0.94700  0.55850  Biso   1.000  C
  H78      1.0000 0.06100  0.88280  0.55900  Biso   1.000  H
  H79      1.0000 0.04530  0.96530  0.60390  Biso   1.000  H
  C41      1.0000 0.97100  0.05000  0.56280  Biso   1.000  C
  H80      1.0000 0.92490  0.07080  0.55450  Biso   1.000  H
  H81      1.0000 0.99530  0.04740  0.61010  Biso   1.000  H
  C42      1.0000 0.00700  0.12800  0.52900  Biso   1.000  C
  H82      1.0000 0.04790  0.15550  0.56170  Biso   1.000  H
  H83      1.0000 0.97710  0.18390  0.50870  Biso   1.000  H
  C43      1.0000 0.06760  0.02700  0.52830  Biso   1.000  C
  H84      1.0000 0.08430  0.08150  0.56000  Biso   1.000  H
  H85      1.0000 0.10610  0.99790  0.52010  Biso   1.000  H
  C44      1.0000 0.46900  0.86910  0.46490  Biso   1.000  C
  C45      1.0000 0.41120  0.91600  0.47820  Biso   1.000  C
  H86      1.0000 0.40510  0.88170  0.51500  Biso   1.000  H
  H87      1.0000 0.37090  0.90860  0.43980  Biso   1.000  H
  H88      1.0000 0.42020  0.98640  0.48840  Biso   1.000  H
  C46      1.0000 0.97400  0.58000  0.56400  Biso   1.000  C
  C47      1.0000 0.46600  0.59600  0.48400  Biso   1.000  C
  H89      1.0000 0.42980  0.60630  0.44220  Biso   1.000  H
  H90      1.0000 0.47360  0.66080  0.50780  Biso   1.000  H
  C48      1.0000 0.57500  0.52500  0.52910  Biso   1.000  C
  H91      1.0000 0.59300  0.57680  0.56300  Biso   1.000  H
  H92      1.0000 0.61170  0.50170  0.51580  Biso   1.000  H
  C49      1.0000 0.49700  0.47200  0.42740  Biso   1.000  C
  H93      1.0000 0.46530  0.49380  0.38500  Biso   1.000  H
  H94      1.0000 0.53550  0.44100  0.41960  Biso   1.000  H
  C50      1.0000 0.53600  0.60800  0.54300  Biso   1.000  C
  H95      1.0000 0.51610  0.67420  0.54240  Biso   1.000  H
  H96      1.0000 0.58430  0.61180  0.56820  Biso   1.000  H
  C51      1.0000 0.55640  0.48200  0.47600  Biso   1.000  C
  H97      1.0000 0.60480  0.49310  0.49640  Biso   1.000  H
  H98      1.0000 0.54730  0.45650  0.43150  Biso   1.000  H
  C52      1.0000 0.45180  0.56500  0.44140  Biso   1.000  C
  H99      1.0000 0.44020  0.55550  0.39420  Biso   1.000  H
  H100     1.0000 0.43140  0.62810  0.44850  Biso   1.000  H
  Ag5      1.0000 0.07061  0.79883  0.92965  Biso   1.000  Ag
  N17      1.0000 0.02350  0.93010  0.97320  Biso   1.000  N
  C53      1.0000 0.21730  0.76850  0.93120  Biso   1.000  C
  H101     1.0000 0.19740  0.72740  0.89180  Biso   1.000  H
  H102     1.0000 0.21280  0.83960  0.91810  Biso   1.000  H
  C54      1.0000 0.51500  0.02300  0.07900  Biso   1.000  C
  H103     1.0000 0.49510  0.06990  0.10030  Biso   1.000  H
  H104     1.0000 0.56100  0.00920  0.10670  Biso   1.000  H
  H105     1.0000 0.51480  0.05180  0.03780  Biso   1.000  H
  Ag6      1.0000 0.42156  0.67570  0.07738  Biso   1.000  Ag
  N18      1.0000 0.52490  0.69500  0.31630  Biso   1.000  N
  N19      1.0000 0.18200  0.75020  0.97670  Biso   1.000  N
  N20      1.0000 0.30690  0.70360  0.02960  Biso   1.000  N
  C55      1.0000 0.56480  0.74500  0.28430  Biso   1.000  C
  H106     1.0000 0.60850  0.71150  0.29690  Biso   1.000  H
  H107     1.0000 0.57250  0.81480  0.29960  Biso   1.000  H
  N21      1.0000 0.47160  0.68600  0.18960  Biso   1.000  N
  C56      1.0000 0.45900  0.73100  0.29500  Biso   1.000  C
  H108     1.0000 0.45890  0.80090  0.31020  Biso   1.000  H
  H109     1.0000 0.43220  0.69030  0.31370  Biso   1.000  H
  N22      1.0000 0.47390  0.56500  0.02680  Biso   1.000  N
  C57      1.0000 0.29080  0.74200  0.96360  Biso   1.000  C
  H110     1.0000 0.31780  0.80250  0.96510  Biso   1.000  H
  H111     1.0000 0.30280  0.69140  0.93710  Biso   1.000  H
  N23      1.0000 0.45600  0.83300  0.04380  Biso   1.000  N
  C58      1.0000 0.26430  0.61670  0.02740  Biso   1.000  C
  H112     1.0000 0.27610  0.56180  0.00340  Biso   1.000  H
  H113     1.0000 0.27230  0.59330  0.07200  Biso   1.000  H
  N24      1.0000 0.01020  0.66750  0.95600  Biso   1.000  N
  C59      1.0000 0.19190  0.64240  0.99460  Biso   1.000  C
  H114     1.0000 0.16790  0.62610  0.02410  Biso   1.000  H
  H115     1.0000 0.17290  0.60130  0.95510  Biso   1.000  H
  C60      1.0000 0.21460  0.80960  0.03560  Biso   1.000  C
  H116     1.0000 0.20910  0.88140  0.02440  Biso   1.000  H
  H117     1.0000 0.19270  0.79630  0.06730  Biso   1.000  H
  C61      1.0000 0.28790  0.78570  0.06630  Biso   1.000  C
  H118     1.0000 0.29810  0.76490  0.11180  Biso   1.000  H
  H119     1.0000 0.31420  0.84630  0.06640  Biso   1.000  H
  C62      1.0000 0.48400  0.58700  0.21850  Biso   1.000  C
  H120     1.0000 0.44150  0.55070  0.20720  Biso   1.000  H
  H121     1.0000 0.51260  0.54940  0.19980  Biso   1.000  H
  C63      1.0000 0.51800  0.59000  0.29260  Biso   1.000  C
  H122     1.0000 0.56210  0.55820  0.30530  Biso   1.000  H
  H123     1.0000 0.49100  0.55140  0.31280  Biso   1.000  H
  C64      1.0000 0.53190  0.74400  0.20880  Biso   1.000  C
  H124     1.0000 0.56290  0.71540  0.18970  Biso   1.000  H
  H125     1.0000 0.52160  0.81350  0.19280  Biso   1.000  H
  C65      1.0000 0.42730  0.72800  0.21880  Biso   1.000  C
  H126     1.0000 0.41540  0.79710  0.20220  Biso   1.000  H
  H127     1.0000 0.38610  0.68850  0.20580  Biso   1.000  H
  C66      1.0000 0.53800  0.55300  0.05850  Biso   1.000  C
  H128     1.0000 0.56100  0.61720  0.05900  Biso   1.000  H
  H129     1.0000 0.54530  0.53470  0.10390  Biso   1.000  H
  C67      1.0000 0.47100  0.45000  0.06280  Biso   1.000  C
  H130     1.0000 0.42490  0.42920  0.05450  Biso   1.000  H
  H131     1.0000 0.49530  0.45260  0.11010  Biso   1.000  H
  C68      1.0000 0.50700  0.37200  0.02900  Biso   1.000  C
  H132     1.0000 0.54790  0.34450  0.06170  Biso   1.000  H
  H133     1.0000 0.47710  0.31610  0.00870  Biso   1.000  H
  C69      1.0000 0.56760  0.47300  0.02830  Biso   1.000  C
  H134     1.0000 0.58430  0.41850  0.06000  Biso   1.000  H
  H135     1.0000 0.60610  0.50210  0.02010  Biso   1.000  H
  C70      1.0000 0.96900  0.63090  0.96490  Biso   1.000  C
  C71      1.0000 0.91120  0.58400  0.97820  Biso   1.000  C
  H136     1.0000 0.90510  0.61830  0.01500  Biso   1.000  H
  H137     1.0000 0.87090  0.59140  0.93980  Biso   1.000  H
  H138     1.0000 0.92020  0.51360  0.98840  Biso   1.000  H
  C72      1.0000 0.47400  0.92000  0.06400  Biso   1.000  C
  C73      1.0000 0.96600  0.90400  0.98400  Biso   1.000  C
  H139     1.0000 0.92980  0.89370  0.94220  Biso   1.000  H
  H140     1.0000 0.97360  0.83920  0.00780  Biso   1.000  H
  C74      1.0000 0.07500  0.97500  0.02910  Biso   1.000  C
  H141     1.0000 0.09300  0.92320  0.06300  Biso   1.000  H
  H142     1.0000 0.11170  0.99830  0.01580  Biso   1.000  H
  C75      1.0000 0.99700  0.02800  0.92740  Biso   1.000  C
  H143     1.0000 0.96530  0.00620  0.88500  Biso   1.000  H
  H144     1.0000 0.03550  0.05900  0.91960  Biso   1.000  H
  C76      1.0000 0.03600  0.89200  0.04300  Biso   1.000  C
  H145     1.0000 0.01610  0.82580  0.04240  Biso   1.000  H
  H146     1.0000 0.08430  0.88820  0.06820  Biso   1.000  H
  C77      1.0000 0.05640  0.01800  0.97600  Biso   1.000  C
  H147     1.0000 0.10480  0.00690  0.99640  Biso   1.000  H
  H148     1.0000 0.04730  0.04350  0.93150  Biso   1.000  H
  C78      1.0000 0.95180  0.93500  0.94140  Biso   1.000  C
  H149     1.0000 0.94020  0.94450  0.89420  Biso   1.000  H
  H150     1.0000 0.93140  0.87190  0.94850  Biso   1.000  H
  Ag7      1.0000 0.42939  0.29883  0.57035  Biso   1.000  Ag
  N25      1.0000 0.47650  0.43010  0.52680  Biso   1.000  N
  C79      1.0000 0.28270  0.26850  0.56880  Biso   1.000  C
  H151     1.0000 0.30260  0.22740  0.60820  Biso   1.000  H
  H152     1.0000 0.28720  0.33960  0.58190  Biso   1.000  H
  C80      1.0000 0.98500  0.52300  0.42100  Biso   1.000  C
  H153     1.0000 0.00490  0.56990  0.39970  Biso   1.000  H
  H154     1.0000 0.93900  0.50920  0.39330  Biso   1.000  H
  H155     1.0000 0.98520  0.55180  0.46220  Biso   1.000  H
  Ag8      1.0000 0.07844  0.17570  0.42262  Biso   1.000  Ag
  N26      1.0000 0.97510  0.19500  0.18370  Biso   1.000  N
  N27      1.0000 0.31800  0.25020  0.52330  Biso   1.000  N
  N28      1.0000 0.19310  0.20360  0.47040  Biso   1.000  N
  C81      1.0000 0.93520  0.24500  0.21570  Biso   1.000  C
  H156     1.0000 0.89150  0.21150  0.20310  Biso   1.000  H
  H157     1.0000 0.92750  0.31480  0.20040  Biso   1.000  H
  N29      1.0000 0.02840  0.18600  0.31040  Biso   1.000  N
  C82      1.0000 0.04100  0.23100  0.20500  Biso   1.000  C
  H158     1.0000 0.04110  0.30090  0.18980  Biso   1.000  H
  H159     1.0000 0.06780  0.19030  0.18630  Biso   1.000  H
  N30      1.0000 0.02610  0.06500  0.47320  Biso   1.000  N
  C83      1.0000 0.20920  0.24200  0.53640  Biso   1.000  C
  H160     1.0000 0.18220  0.30250  0.53490  Biso   1.000  H
  H161     1.0000 0.19720  0.19140  0.56290  Biso   1.000  H
  N31      1.0000 0.04400  0.33300  0.45620  Biso   1.000  N
  C84      1.0000 0.23570  0.11670  0.47260  Biso   1.000  C
  H162     1.0000 0.22390  0.06180  0.49660  Biso   1.000  H
  H163     1.0000 0.22770  0.09330  0.42800  Biso   1.000  H
  N32      1.0000 0.48980  0.16750  0.54400  Biso   1.000  N
  C85      1.0000 0.30810  0.14240  0.50540  Biso   1.000  C
  H164     1.0000 0.33210  0.12610  0.47590  Biso   1.000  H
  H165     1.0000 0.32710  0.10130  0.54490  Biso   1.000  H
  C86      1.0000 0.28540  0.30960  0.46440  Biso   1.000  C
  H166     1.0000 0.29090  0.38140  0.47560  Biso   1.000  H
  H167     1.0000 0.30730  0.29630  0.43270  Biso   1.000  H
  C87      1.0000 0.21210  0.28570  0.43370  Biso   1.000  C
  H168     1.0000 0.20190  0.26490  0.38820  Biso   1.000  H
  H169     1.0000 0.18580  0.34630  0.43360  Biso   1.000  H
  C88      1.0000 0.01600  0.08700  0.28150  Biso   1.000  C
  H170     1.0000 0.05850  0.05070  0.29280  Biso   1.000  H
  H171     1.0000 0.98740  0.04940  0.30020  Biso   1.000  H
  C89      1.0000 0.98200  0.09000  0.20740  Biso   1.000  C
  H172     1.0000 0.93790  0.05820  0.19470  Biso   1.000  H
  H173     1.0000 0.00900  0.05140  0.18720  Biso   1.000  H
  C90      1.0000 0.96810  0.24400  0.29120  Biso   1.000  C
  H174     1.0000 0.93710  0.21540  0.31030  Biso   1.000  H
  H175     1.0000 0.97840  0.31350  0.30720  Biso   1.000  H
  C91      1.0000 0.07270  0.22800  0.28120  Biso   1.000  C
  H176     1.0000 0.08460  0.29710  0.29780  Biso   1.000  H
  H177     1.0000 0.11390  0.18850  0.29420  Biso   1.000  H
  C92      1.0000 0.96200  0.05300  0.44150  Biso   1.000  C
  H178     1.0000 0.93900  0.11720  0.44100  Biso   1.000  H
  H179     1.0000 0.95470  0.03470  0.39610  Biso   1.000  H
  C93      1.0000 0.02900  0.95000  0.43720  Biso   1.000  C
  H180     1.0000 0.07510  0.92920  0.44550  Biso   1.000  H
  H181     1.0000 0.00470  0.95260  0.38990  Biso   1.000  H
  C94      1.0000 0.99300  0.87200  0.47100  Biso   1.000  C
  H182     1.0000 0.95210  0.84450  0.43830  Biso   1.000  H
  H183     1.0000 0.02290  0.81610  0.49130  Biso   1.000  H
  C95      1.0000 0.93240  0.97300  0.47170  Biso   1.000  C
  H184     1.0000 0.91570  0.91850  0.44000  Biso   1.000  H
  H185     1.0000 0.89390  0.00210  0.47990  Biso   1.000  H
  C96      1.0000 0.53100  0.13090  0.53510  Biso   1.000  C
  C97      1.0000 0.58880  0.08400  0.52180  Biso   1.000  C
  H186     1.0000 0.59490  0.11830  0.48500  Biso   1.000  H
  H187     1.0000 0.62910  0.09140  0.56020  Biso   1.000  H
  H188     1.0000 0.57980  0.01360  0.51160  Biso   1.000  H
  C98      1.0000 0.02600  0.42000  0.43600  Biso   1.000  C
  C99      1.0000 0.53400  0.40400  0.51600  Biso   1.000  C
  H189     1.0000 0.57020  0.39370  0.55780  Biso   1.000  H
  H190     1.0000 0.52640  0.33920  0.49220  Biso   1.000  H
  C100     1.0000 0.42500  0.47500  0.47090  Biso   1.000  C
  H191     1.0000 0.40700  0.42320  0.43700  Biso   1.000  H
  H192     1.0000 0.38830  0.49830  0.48420  Biso   1.000  H
  C101     1.0000 0.50300  0.52800  0.57260  Biso   1.000  C
  H193     1.0000 0.53470  0.50620  0.61500  Biso   1.000  H
  H194     1.0000 0.46450  0.55900  0.58040  Biso   1.000  H
  C102     1.0000 0.46400  0.39200  0.45700  Biso   1.000  C
  H195     1.0000 0.48390  0.32580  0.45760  Biso   1.000  H
  H196     1.0000 0.41570  0.38820  0.43180  Biso   1.000  H
  C103     1.0000 0.44360  0.51800  0.52400  Biso   1.000  C
  H197     1.0000 0.39520  0.50690  0.50360  Biso   1.000  H
  H198     1.0000 0.45270  0.54350  0.56850  Biso   1.000  H
  C104     1.0000 0.54820  0.43500  0.55860  Biso   1.000  C
  H199     1.0000 0.55980  0.44450  0.60580  Biso   1.000  H
  H200     1.0000 0.56860  0.37190  0.55150  Biso   1.000  H
