data_image0
_cell_length_a       22.2897
_cell_length_b       16.8927
_cell_length_c       16.4976
_cell_angle_alpha    90
_cell_angle_beta     104.079
_cell_angle_gamma    90

_symmetry_space_group_name_H-M    "P 1"
_symmetry_int_tables_number       1

loop_
  _symmetry_equiv_pos_as_xyz
  'x, y, z'

loop_
  _atom_site_label
  _atom_site_occupancy
  _atom_site_fract_x
  _atom_site_fract_y
  _atom_site_fract_z
  _atom_site_thermal_displace_type
  _atom_site_B_iso_or_equiv
  _atom_site_type_symbol
  O1       1.0000 0.95386  0.91538  0.56764  Biso   1.000  O
  O2       1.0000 0.05665  0.91623  0.60630  Biso   1.000  O
  O3       1.0000 0.64890  0.86603  0.46250  Biso   1.000  O
  C1       1.0000 0.99993  0.66929  0.93365  Biso   1.000  C
  C2       1.0000 0.99991  0.75030  0.95914  Biso   1.000  C
  H1       1.0000 0.99980  0.79460  0.92560  Biso   1.000  H
  C3       1.0000 0.99979  0.64414  0.85224  Biso   1.000  C
  C4       1.0000 0.99867  0.56496  0.82619  Biso   1.000  C
  C5       1.0000 0.99948  0.53940  0.74311  Biso   1.000  C
  H2       1.0000 0.99990  0.57200  0.69780  Biso   1.000  H
  C6       1.0000 0.00064  0.70753  0.78892  Biso   1.000  C
  C7       1.0000 0.94855  0.72980  0.73213  Biso   1.000  C
  H3       1.0000 0.91130  0.70510  0.73220  Biso   1.000  H
  C8       1.0000 0.94969  0.78873  0.67381  Biso   1.000  C
  H4       1.0000 0.91330  0.80290  0.63560  Biso   1.000  H
  C9       1.0000 0.00340  0.82605  0.67190  Biso   1.000  C
  C10      1.0000 0.05649  0.80244  0.72770  Biso   1.000  C
  H5       1.0000 0.09400  0.82570  0.72610  Biso   1.000  H
  C11      1.0000 0.05512  0.74433  0.78660  Biso   1.000  C
  H6       1.0000 0.09150  0.73010  0.82490  Biso   1.000  H
  C12      1.0000 0.00460  0.89093  0.61010  Biso   1.000  C
  C13      1.0000 0.79607  0.01990  0.39970  Biso   1.000  C
  H7       1.0000 0.19060  0.03380  0.64760  Biso   1.000  H
  C14      1.0000 0.73205  0.02190  0.39410  Biso   1.000  C
  H8       1.0000 0.70360  0.03700  0.34550  Biso   1.000  H
  C15      1.0000 0.75687  0.01650  0.53460  Biso   1.000  C
  H9       1.0000 0.25500  0.02890  0.41660  Biso   1.000  H
  C16      1.0000 0.81845  0.01530  0.53430  Biso   1.000  C
  H10      1.0000 0.84760  0.97440  0.58400  Biso   1.000  H
  C17      1.0000 0.62224  0.92632  0.47060  Biso   1.000  C
  C18      1.0000 0.55895  0.92710  0.48567  Biso   1.000  C
  C19      1.0000 0.52951  0.85737  0.49205  Biso   1.000  C
  H11      1.0000 0.54870  0.80960  0.48580  Biso   1.000  H
  O4       1.0000 0.04614  0.91538  0.43236  Biso   1.000  O
  O5       1.0000 0.94335  0.91623  0.39370  Biso   1.000  O
  O6       1.0000 0.35110  0.86603  0.53750  Biso   1.000  O
  C20      1.0000 0.00007  0.66929  0.06635  Biso   1.000  C
  C21      1.0000 0.00009  0.75030  0.04086  Biso   1.000  C
  H12      1.0000 0.00020  0.79460  0.07440  Biso   1.000  H
  C22      1.0000 0.00021  0.64414  0.14776  Biso   1.000  C
  C23      1.0000 0.00133  0.56496  0.17381  Biso   1.000  C
  C24      1.0000 0.00052  0.53940  0.25689  Biso   1.000  C
  H13      1.0000 0.00010  0.57200  0.30220  Biso   1.000  H
  C25      1.0000 0.99936  0.70753  0.21108  Biso   1.000  C
  C26      1.0000 0.05145  0.72980  0.26787  Biso   1.000  C
  H14      1.0000 0.08870  0.70510  0.26780  Biso   1.000  H
  C27      1.0000 0.05031  0.78873  0.32619  Biso   1.000  C
  H15      1.0000 0.08670  0.80290  0.36440  Biso   1.000  H
  C28      1.0000 0.99660  0.82605  0.32810  Biso   1.000  C
  C29      1.0000 0.94351  0.80244  0.27230  Biso   1.000  C
  H16      1.0000 0.90600  0.82570  0.27390  Biso   1.000  H
  C30      1.0000 0.94488  0.74433  0.21340  Biso   1.000  C
  H17      1.0000 0.90850  0.73010  0.17510  Biso   1.000  H
  C31      1.0000 0.99540  0.89093  0.38990  Biso   1.000  C
  C32      1.0000 0.20393  0.01990  0.60030  Biso   1.000  C
  H18      1.0000 0.80940  0.03380  0.35240  Biso   1.000  H
  C33      1.0000 0.26795  0.02190  0.60590  Biso   1.000  C
  H19      1.0000 0.29640  0.03700  0.65450  Biso   1.000  H
  C34      1.0000 0.24313  0.01650  0.46540  Biso   1.000  C
  H20      1.0000 0.74500  0.02890  0.58340  Biso   1.000  H
  C35      1.0000 0.18155  0.01530  0.46570  Biso   1.000  C
  H21      1.0000 0.15240  0.97440  0.41600  Biso   1.000  H
  C36      1.0000 0.37776  0.92632  0.52940  Biso   1.000  C
  C37      1.0000 0.44105  0.92710  0.51433  Biso   1.000  C
  C38      1.0000 0.47049  0.85737  0.50795  Biso   1.000  C
  H22      1.0000 0.45130  0.80960  0.51420  Biso   1.000  H
  O7       1.0000 0.04614  0.08462  0.43236  Biso   1.000  O
  O8       1.0000 0.94335  0.08377  0.39370  Biso   1.000  O
  O9       1.0000 0.35110  0.13397  0.53750  Biso   1.000  O
  C39      1.0000 0.00007  0.33071  0.06635  Biso   1.000  C
  C40      1.0000 0.00009  0.24970  0.04086  Biso   1.000  C
  H23      1.0000 0.00020  0.20540  0.07440  Biso   1.000  H
  C41      1.0000 0.00021  0.35586  0.14776  Biso   1.000  C
  C42      1.0000 0.00133  0.43504  0.17381  Biso   1.000  C
  C43      1.0000 0.00052  0.46060  0.25689  Biso   1.000  C
  H24      1.0000 0.00010  0.42800  0.30220  Biso   1.000  H
  C44      1.0000 0.99936  0.29247  0.21108  Biso   1.000  C
  C45      1.0000 0.05145  0.27020  0.26787  Biso   1.000  C
  H25      1.0000 0.08870  0.29490  0.26780  Biso   1.000  H
  C46      1.0000 0.05031  0.21127  0.32619  Biso   1.000  C
  H26      1.0000 0.08670  0.19710  0.36440  Biso   1.000  H
  C47      1.0000 0.99660  0.17395  0.32810  Biso   1.000  C
  C48      1.0000 0.94351  0.19756  0.27230  Biso   1.000  C
  H27      1.0000 0.90600  0.17430  0.27390  Biso   1.000  H
  C49      1.0000 0.94488  0.25567  0.21340  Biso   1.000  C
  H28      1.0000 0.90850  0.26990  0.17510  Biso   1.000  H
  C50      1.0000 0.99540  0.10907  0.38990  Biso   1.000  C
  C51      1.0000 0.20393  0.98010  0.60030  Biso   1.000  C
  H29      1.0000 0.80940  0.96620  0.35240  Biso   1.000  H
  C52      1.0000 0.26795  0.97810  0.60590  Biso   1.000  C
  H30      1.0000 0.29640  0.96300  0.65450  Biso   1.000  H
  C53      1.0000 0.24313  0.98350  0.46540  Biso   1.000  C
  H31      1.0000 0.74500  0.97110  0.58340  Biso   1.000  H
  C54      1.0000 0.18155  0.98470  0.46570  Biso   1.000  C
  H32      1.0000 0.15240  0.02560  0.41600  Biso   1.000  H
  C55      1.0000 0.37776  0.07368  0.52940  Biso   1.000  C
  C56      1.0000 0.44105  0.07290  0.51433  Biso   1.000  C
  C57      1.0000 0.47049  0.14263  0.50795  Biso   1.000  C
  H33      1.0000 0.45130  0.19040  0.51420  Biso   1.000  H
  O10      1.0000 0.95386  0.08462  0.56764  Biso   1.000  O
  O11      1.0000 0.05665  0.08377  0.60630  Biso   1.000  O
  O12      1.0000 0.64890  0.13397  0.46250  Biso   1.000  O
  C58      1.0000 0.99993  0.33071  0.93365  Biso   1.000  C
  C59      1.0000 0.99991  0.24970  0.95914  Biso   1.000  C
  H34      1.0000 0.99980  0.20540  0.92560  Biso   1.000  H
  C60      1.0000 0.99979  0.35586  0.85224  Biso   1.000  C
  C61      1.0000 0.99867  0.43504  0.82619  Biso   1.000  C
  C62      1.0000 0.99948  0.46060  0.74311  Biso   1.000  C
  H35      1.0000 0.99990  0.42800  0.69780  Biso   1.000  H
  C63      1.0000 0.00064  0.29247  0.78892  Biso   1.000  C
  C64      1.0000 0.94855  0.27020  0.73213  Biso   1.000  C
  H36      1.0000 0.91130  0.29490  0.73220  Biso   1.000  H
  C65      1.0000 0.94969  0.21127  0.67381  Biso   1.000  C
  H37      1.0000 0.91330  0.19710  0.63560  Biso   1.000  H
  C66      1.0000 0.00340  0.17395  0.67190  Biso   1.000  C
  C67      1.0000 0.05649  0.19756  0.72770  Biso   1.000  C
  H38      1.0000 0.09400  0.17430  0.72610  Biso   1.000  H
  C68      1.0000 0.05512  0.25567  0.78660  Biso   1.000  C
  H39      1.0000 0.09150  0.26990  0.82490  Biso   1.000  H
  C69      1.0000 0.00460  0.10907  0.61010  Biso   1.000  C
  C70      1.0000 0.79607  0.98010  0.39970  Biso   1.000  C
  H40      1.0000 0.19060  0.96620  0.64760  Biso   1.000  H
  C71      1.0000 0.73205  0.97810  0.39410  Biso   1.000  C
  H41      1.0000 0.70360  0.96300  0.34550  Biso   1.000  H
  C72      1.0000 0.75687  0.98350  0.53460  Biso   1.000  C
  H42      1.0000 0.25500  0.97110  0.41660  Biso   1.000  H
  C73      1.0000 0.81845  0.98470  0.53430  Biso   1.000  C
  H43      1.0000 0.84760  0.02560  0.58400  Biso   1.000  H
  C74      1.0000 0.62224  0.07368  0.47060  Biso   1.000  C
  C75      1.0000 0.55895  0.07290  0.48567  Biso   1.000  C
  C76      1.0000 0.52951  0.14263  0.49205  Biso   1.000  C
  H44      1.0000 0.54870  0.19040  0.48580  Biso   1.000  H
  Zn1      1.0000 0.98348  0.50000  0.99467  Biso   1.000  Zn
  N1       1.0000 0.99893  0.50000  0.87650  Biso   1.000  N
  Zn2      1.0000 0.01652  0.50000  0.00533  Biso   1.000  Zn
  N2       1.0000 0.00107  0.50000  0.12350  Biso   1.000  N
  Zn3      1.0000 0.93155  0.00000  0.47638  Biso   1.000  Zn
  N3       1.0000 0.83788  0.00000  0.46630  Biso   1.000  N
  N4       1.0000 0.64933  0.00000  0.46695  Biso   1.000  N
  C77      1.0000 0.71431  0.00000  0.46490  Biso   1.000  C
  C78      1.0000 0.52987  0.00000  0.49210  Biso   1.000  C
  Zn4      1.0000 0.06845  0.00000  0.52362  Biso   1.000  Zn
  N5       1.0000 0.16212  0.00000  0.53370  Biso   1.000  N
  N6       1.0000 0.35067  0.00000  0.53305  Biso   1.000  N
  C79      1.0000 0.28569  0.00000  0.53510  Biso   1.000  C
  C80      1.0000 0.47013  0.00000  0.50790  Biso   1.000  C
  N7       1.0000 0.00000  0.62072  0.00000  Biso   1.000  N
  N8       1.0000 0.00000  0.37928  0.00000  Biso   1.000  N
  O13      1.0000 0.45386  0.41538  0.56764  Biso   1.000  O
  O14      1.0000 0.55665  0.41623  0.60630  Biso   1.000  O
  O15      1.0000 0.14890  0.36603  0.46250  Biso   1.000  O
  C81      1.0000 0.49993  0.16929  0.93365  Biso   1.000  C
  C82      1.0000 0.49991  0.25030  0.95914  Biso   1.000  C
  H45      1.0000 0.49980  0.29460  0.92560  Biso   1.000  H
  C83      1.0000 0.49979  0.14414  0.85224  Biso   1.000  C
  C84      1.0000 0.49867  0.06496  0.82619  Biso   1.000  C
  C85      1.0000 0.49948  0.03940  0.74311  Biso   1.000  C
  H46      1.0000 0.49990  0.07200  0.69780  Biso   1.000  H
  C86      1.0000 0.50064  0.20753  0.78892  Biso   1.000  C
  C87      1.0000 0.44855  0.22980  0.73213  Biso   1.000  C
  H47      1.0000 0.41130  0.20510  0.73220  Biso   1.000  H
  C88      1.0000 0.44969  0.28873  0.67381  Biso   1.000  C
  H48      1.0000 0.41330  0.30290  0.63560  Biso   1.000  H
  C89      1.0000 0.50340  0.32605  0.67190  Biso   1.000  C
  C90      1.0000 0.55649  0.30244  0.72770  Biso   1.000  C
  H49      1.0000 0.59400  0.32570  0.72610  Biso   1.000  H
  C91      1.0000 0.55512  0.24433  0.78660  Biso   1.000  C
  H50      1.0000 0.59150  0.23010  0.82490  Biso   1.000  H
  C92      1.0000 0.50460  0.39093  0.61010  Biso   1.000  C
  C93      1.0000 0.29607  0.51990  0.39970  Biso   1.000  C
  H51      1.0000 0.69060  0.53380  0.64760  Biso   1.000  H
  C94      1.0000 0.23205  0.52190  0.39410  Biso   1.000  C
  H52      1.0000 0.20360  0.53700  0.34550  Biso   1.000  H
  C95      1.0000 0.25687  0.51650  0.53460  Biso   1.000  C
  H53      1.0000 0.75500  0.52890  0.41660  Biso   1.000  H
  C96      1.0000 0.31845  0.51530  0.53430  Biso   1.000  C
  H54      1.0000 0.34760  0.47440  0.58400  Biso   1.000  H
  C97      1.0000 0.12224  0.42632  0.47060  Biso   1.000  C
  C98      1.0000 0.05895  0.42710  0.48567  Biso   1.000  C
  C99      1.0000 0.02951  0.35737  0.49205  Biso   1.000  C
  H55      1.0000 0.04870  0.30960  0.48580  Biso   1.000  H
  O16      1.0000 0.54614  0.41538  0.43236  Biso   1.000  O
  O17      1.0000 0.44335  0.41623  0.39370  Biso   1.000  O
  O18      1.0000 0.85110  0.36603  0.53750  Biso   1.000  O
  C100     1.0000 0.50007  0.16929  0.06635  Biso   1.000  C
  C101     1.0000 0.50009  0.25030  0.04086  Biso   1.000  C
  H56      1.0000 0.50020  0.29460  0.07440  Biso   1.000  H
  C102     1.0000 0.50021  0.14414  0.14776  Biso   1.000  C
  C103     1.0000 0.50133  0.06496  0.17381  Biso   1.000  C
  C104     1.0000 0.50052  0.03940  0.25689  Biso   1.000  C
  H57      1.0000 0.50010  0.07200  0.30220  Biso   1.000  H
  C105     1.0000 0.49936  0.20753  0.21108  Biso   1.000  C
  C106     1.0000 0.55145  0.22980  0.26787  Biso   1.000  C
  H58      1.0000 0.58870  0.20510  0.26780  Biso   1.000  H
  C107     1.0000 0.55031  0.28873  0.32619  Biso   1.000  C
  H59      1.0000 0.58670  0.30290  0.36440  Biso   1.000  H
  C108     1.0000 0.49660  0.32605  0.32810  Biso   1.000  C
  C109     1.0000 0.44351  0.30244  0.27230  Biso   1.000  C
  H60      1.0000 0.40600  0.32570  0.27390  Biso   1.000  H
  C110     1.0000 0.44488  0.24433  0.21340  Biso   1.000  C
  H61      1.0000 0.40850  0.23010  0.17510  Biso   1.000  H
  C111     1.0000 0.49540  0.39093  0.38990  Biso   1.000  C
  C112     1.0000 0.70393  0.51990  0.60030  Biso   1.000  C
  H62      1.0000 0.30940  0.53380  0.35240  Biso   1.000  H
  C113     1.0000 0.76795  0.52190  0.60590  Biso   1.000  C
  H63      1.0000 0.79640  0.53700  0.65450  Biso   1.000  H
  C114     1.0000 0.74313  0.51650  0.46540  Biso   1.000  C
  H64      1.0000 0.24500  0.52890  0.58340  Biso   1.000  H
  C115     1.0000 0.68155  0.51530  0.46570  Biso   1.000  C
  H65      1.0000 0.65240  0.47440  0.41600  Biso   1.000  H
  C116     1.0000 0.87776  0.42632  0.52940  Biso   1.000  C
  C117     1.0000 0.94105  0.42710  0.51433  Biso   1.000  C
  C118     1.0000 0.97049  0.35737  0.50795  Biso   1.000  C
  H66      1.0000 0.95130  0.30960  0.51420  Biso   1.000  H
  O19      1.0000 0.54614  0.58462  0.43236  Biso   1.000  O
  O20      1.0000 0.44335  0.58377  0.39370  Biso   1.000  O
  O21      1.0000 0.85110  0.63397  0.53750  Biso   1.000  O
  C119     1.0000 0.50007  0.83071  0.06635  Biso   1.000  C
  C120     1.0000 0.50009  0.74970  0.04086  Biso   1.000  C
  H67      1.0000 0.50020  0.70540  0.07440  Biso   1.000  H
  C121     1.0000 0.50021  0.85586  0.14776  Biso   1.000  C
  C122     1.0000 0.50133  0.93504  0.17381  Biso   1.000  C
  C123     1.0000 0.50052  0.96060  0.25689  Biso   1.000  C
  H68      1.0000 0.50010  0.92800  0.30220  Biso   1.000  H
  C124     1.0000 0.49936  0.79247  0.21108  Biso   1.000  C
  C125     1.0000 0.55145  0.77020  0.26787  Biso   1.000  C
  H69      1.0000 0.58870  0.79490  0.26780  Biso   1.000  H
  C126     1.0000 0.55031  0.71127  0.32619  Biso   1.000  C
  H70      1.0000 0.58670  0.69710  0.36440  Biso   1.000  H
  C127     1.0000 0.49660  0.67395  0.32810  Biso   1.000  C
  C128     1.0000 0.44351  0.69756  0.27230  Biso   1.000  C
  H71      1.0000 0.40600  0.67430  0.27390  Biso   1.000  H
  C129     1.0000 0.44488  0.75567  0.21340  Biso   1.000  C
  H72      1.0000 0.40850  0.76990  0.17510  Biso   1.000  H
  C130     1.0000 0.49540  0.60907  0.38990  Biso   1.000  C
  C131     1.0000 0.70393  0.48010  0.60030  Biso   1.000  C
  H73      1.0000 0.30940  0.46620  0.35240  Biso   1.000  H
  C132     1.0000 0.76795  0.47810  0.60590  Biso   1.000  C
  H74      1.0000 0.79640  0.46300  0.65450  Biso   1.000  H
  C133     1.0000 0.74313  0.48350  0.46540  Biso   1.000  C
  H75      1.0000 0.24500  0.47110  0.58340  Biso   1.000  H
  C134     1.0000 0.68155  0.48470  0.46570  Biso   1.000  C
  H76      1.0000 0.65240  0.52560  0.41600  Biso   1.000  H
  C135     1.0000 0.87776  0.57368  0.52940  Biso   1.000  C
  C136     1.0000 0.94105  0.57290  0.51433  Biso   1.000  C
  C137     1.0000 0.97049  0.64263  0.50795  Biso   1.000  C
  H77      1.0000 0.95130  0.69040  0.51420  Biso   1.000  H
  O22      1.0000 0.45386  0.58462  0.56764  Biso   1.000  O
  O23      1.0000 0.55665  0.58377  0.60630  Biso   1.000  O
  O24      1.0000 0.14890  0.63397  0.46250  Biso   1.000  O
  C138     1.0000 0.49993  0.83071  0.93365  Biso   1.000  C
  C139     1.0000 0.49991  0.74970  0.95914  Biso   1.000  C
  H78      1.0000 0.49980  0.70540  0.92560  Biso   1.000  H
  C140     1.0000 0.49979  0.85586  0.85224  Biso   1.000  C
  C141     1.0000 0.49867  0.93504  0.82619  Biso   1.000  C
  C142     1.0000 0.49948  0.96060  0.74311  Biso   1.000  C
  H79      1.0000 0.49990  0.92800  0.69780  Biso   1.000  H
  C143     1.0000 0.50064  0.79247  0.78892  Biso   1.000  C
  C144     1.0000 0.44855  0.77020  0.73213  Biso   1.000  C
  H80      1.0000 0.41130  0.79490  0.73220  Biso   1.000  H
  C145     1.0000 0.44969  0.71127  0.67381  Biso   1.000  C
  H81      1.0000 0.41330  0.69710  0.63560  Biso   1.000  H
  C146     1.0000 0.50340  0.67395  0.67190  Biso   1.000  C
  C147     1.0000 0.55649  0.69756  0.72770  Biso   1.000  C
  H82      1.0000 0.59400  0.67430  0.72610  Biso   1.000  H
  C148     1.0000 0.55512  0.75567  0.78660  Biso   1.000  C
  H83      1.0000 0.59150  0.76990  0.82490  Biso   1.000  H
  C149     1.0000 0.50460  0.60907  0.61010  Biso   1.000  C
  C150     1.0000 0.29607  0.48010  0.39970  Biso   1.000  C
  H84      1.0000 0.69060  0.46620  0.64760  Biso   1.000  H
  C151     1.0000 0.23205  0.47810  0.39410  Biso   1.000  C
  H85      1.0000 0.20360  0.46300  0.34550  Biso   1.000  H
  C152     1.0000 0.25687  0.48350  0.53460  Biso   1.000  C
  H86      1.0000 0.75500  0.47110  0.41660  Biso   1.000  H
  C153     1.0000 0.31845  0.48470  0.53430  Biso   1.000  C
  H87      1.0000 0.34760  0.52560  0.58400  Biso   1.000  H
  C154     1.0000 0.12224  0.57368  0.47060  Biso   1.000  C
  C155     1.0000 0.05895  0.57290  0.48567  Biso   1.000  C
  C156     1.0000 0.02951  0.64263  0.49205  Biso   1.000  C
  H88      1.0000 0.04870  0.69040  0.48580  Biso   1.000  H
  Zn5      1.0000 0.48348  0.00000  0.99467  Biso   1.000  Zn
  N9       1.0000 0.49893  0.00000  0.87650  Biso   1.000  N
  Zn6      1.0000 0.51652  0.00000  0.00533  Biso   1.000  Zn
  N10      1.0000 0.50107  0.00000  0.12350  Biso   1.000  N
  Zn7      1.0000 0.43155  0.50000  0.47638  Biso   1.000  Zn
  N11      1.0000 0.33788  0.50000  0.46630  Biso   1.000  N
  N12      1.0000 0.14933  0.50000  0.46695  Biso   1.000  N
  C157     1.0000 0.21431  0.50000  0.46490  Biso   1.000  C
  C158     1.0000 0.02987  0.50000  0.49210  Biso   1.000  C
  Zn8      1.0000 0.56845  0.50000  0.52362  Biso   1.000  Zn
  N13      1.0000 0.66212  0.50000  0.53370  Biso   1.000  N
  N14      1.0000 0.85067  0.50000  0.53305  Biso   1.000  N
  C159     1.0000 0.78569  0.50000  0.53510  Biso   1.000  C
  C160     1.0000 0.97013  0.50000  0.50790  Biso   1.000  C
  N15      1.0000 0.50000  0.12072  0.00000  Biso   1.000  N
  N16      1.0000 0.50000  0.87928  0.00000  Biso   1.000  N
