data_image0
_cell_length_a       17.468
_cell_length_b       6.0489
_cell_length_c       18.8144
_cell_angle_alpha    90
_cell_angle_beta     118.086
_cell_angle_gamma    90

_symmetry_space_group_name_H-M    "P 1"
_symmetry_int_tables_number       1

loop_
  _symmetry_equiv_pos_as_xyz
  'x, y, z'

loop_
  _atom_site_label
  _atom_site_occupancy
  _atom_site_fract_x
  _atom_site_fract_y
  _atom_site_fract_z
  _atom_site_thermal_displace_type
  _atom_site_B_iso_or_equiv
  _atom_site_type_symbol
  O1       1.0000 0.16497  0.74810  0.37999  Biso   1.000  O
  N1       1.0000 0.96152  0.62010  0.31523  Biso   1.000  N
  C1       1.0000 0.89320  0.66650  0.32930  Biso   1.000  C
  H1       1.0000 0.85530  0.78500  0.30740  Biso   1.000  H
  O2       1.0000 0.09566  0.02220  0.29858  Biso   1.000  O
  N2       1.0000 0.95626  0.36870  0.39703  Biso   1.000  N
  C2       1.0000 0.88930  0.51360  0.37980  Biso   1.000  C
  H2       1.0000 0.84910  0.50770  0.39910  Biso   1.000  H
  C3       1.0000 0.99791  0.44200  0.35676  Biso   1.000  C
  H3       1.0000 0.04650  0.37430  0.35840  Biso   1.000  H
  C4       1.0000 0.97841  0.18050  0.44903  Biso   1.000  C
  C5       1.0000 0.92690  0.12110  0.48280  Biso   1.000  C
  H4       1.0000 0.87730  0.20260  0.47160  Biso   1.000  H
  C6       1.0000 0.05140  0.05960  0.46650  Biso   1.000  C
  H5       1.0000 0.08680  0.09970  0.44400  Biso   1.000  H
  C7       1.0000 0.16351  0.93620  0.35422  Biso   1.000  C
  C8       1.0000 0.24426  0.07510  0.38780  Biso   1.000  C
  C9       1.0000 0.31920  0.00470  0.45230  Biso   1.000  C
  H6       1.0000 0.32080  0.86780  0.47550  Biso   1.000  H
  C10      1.0000 0.39250  0.13610  0.48320  Biso   1.000  C
  H7       1.0000 0.44230  0.08590  0.52770  Biso   1.000  H
  C11      1.0000 0.39460  0.33640  0.45100  Biso   1.000  C
  C12      1.0000 0.31980  0.40150  0.38680  Biso   1.000  C
  H8       1.0000 0.31900  0.53650  0.36280  Biso   1.000  H
  C13      1.0000 0.24440  0.27650  0.35510  Biso   1.000  C
  H9       1.0000 0.19420  0.32950  0.31170  Biso   1.000  H
  C14      1.0000 0.46240  0.51390  0.46930  Biso   1.000  C
  C15      1.0000 0.49260  0.39000  0.51190  Biso   1.000  C
  H10      1.0000 0.49340  0.52700  0.53820  Biso   1.000  H
  H11      1.0000 0.50800  0.46400  0.46460  Biso   1.000  H
  O3       1.0000 0.83503  0.74810  0.12001  Biso   1.000  O
  N3       1.0000 0.03848  0.62010  0.18477  Biso   1.000  N
  C16      1.0000 0.10680  0.66650  0.17070  Biso   1.000  C
  H12      1.0000 0.14470  0.78500  0.19260  Biso   1.000  H
  O4       1.0000 0.90434  0.02220  0.20142  Biso   1.000  O
  N4       1.0000 0.04374  0.36870  0.10297  Biso   1.000  N
  C17      1.0000 0.11070  0.51360  0.12020  Biso   1.000  C
  H13      1.0000 0.15090  0.50770  0.10090  Biso   1.000  H
  C18      1.0000 0.00209  0.44200  0.14324  Biso   1.000  C
  H14      1.0000 0.95350  0.37430  0.14160  Biso   1.000  H
  C19      1.0000 0.02159  0.18050  0.05097  Biso   1.000  C
  C20      1.0000 0.07310  0.12110  0.01720  Biso   1.000  C
  H15      1.0000 0.12270  0.20260  0.02840  Biso   1.000  H
  C21      1.0000 0.94860  0.05960  0.03350  Biso   1.000  C
  H16      1.0000 0.91320  0.09970  0.05600  Biso   1.000  H
  C22      1.0000 0.83649  0.93620  0.14578  Biso   1.000  C
  C23      1.0000 0.75574  0.07510  0.11220  Biso   1.000  C
  C24      1.0000 0.68080  0.00470  0.04770  Biso   1.000  C
  H17      1.0000 0.67920  0.86780  0.02450  Biso   1.000  H
  C25      1.0000 0.60750  0.13610  0.01680  Biso   1.000  C
  H18      1.0000 0.55770  0.08590  0.97230  Biso   1.000  H
  C26      1.0000 0.60540  0.33640  0.04900  Biso   1.000  C
  C27      1.0000 0.68020  0.40150  0.11320  Biso   1.000  C
  H19      1.0000 0.68100  0.53650  0.13720  Biso   1.000  H
  C28      1.0000 0.75560  0.27650  0.14490  Biso   1.000  C
  H20      1.0000 0.80580  0.32950  0.18830  Biso   1.000  H
  C29      1.0000 0.53760  0.51390  0.03070  Biso   1.000  C
  C30      1.0000 0.50740  0.39000  0.98810  Biso   1.000  C
  H21      1.0000 0.50660  0.52700  0.96180  Biso   1.000  H
  H22      1.0000 0.49200  0.46400  0.03540  Biso   1.000  H
  O5       1.0000 0.83503  0.25190  0.62001  Biso   1.000  O
  N5       1.0000 0.03848  0.37990  0.68477  Biso   1.000  N
  C31      1.0000 0.10680  0.33350  0.67070  Biso   1.000  C
  H23      1.0000 0.14470  0.21500  0.69260  Biso   1.000  H
  O6       1.0000 0.90434  0.97780  0.70142  Biso   1.000  O
  N6       1.0000 0.04374  0.63130  0.60297  Biso   1.000  N
  C32      1.0000 0.11070  0.48640  0.62020  Biso   1.000  C
  H24      1.0000 0.15090  0.49230  0.60090  Biso   1.000  H
  C33      1.0000 0.00209  0.55800  0.64324  Biso   1.000  C
  H25      1.0000 0.95350  0.62570  0.64160  Biso   1.000  H
  C34      1.0000 0.02159  0.81950  0.55097  Biso   1.000  C
  C35      1.0000 0.07310  0.87890  0.51720  Biso   1.000  C
  H26      1.0000 0.12270  0.79740  0.52840  Biso   1.000  H
  C36      1.0000 0.94860  0.94040  0.53350  Biso   1.000  C
  H27      1.0000 0.91320  0.90030  0.55600  Biso   1.000  H
  C37      1.0000 0.83649  0.06380  0.64578  Biso   1.000  C
  C38      1.0000 0.75574  0.92490  0.61220  Biso   1.000  C
  C39      1.0000 0.68080  0.99530  0.54770  Biso   1.000  C
  H28      1.0000 0.67920  0.13220  0.52450  Biso   1.000  H
  C40      1.0000 0.60750  0.86390  0.51680  Biso   1.000  C
  H29      1.0000 0.55770  0.91410  0.47230  Biso   1.000  H
  C41      1.0000 0.60540  0.66360  0.54900  Biso   1.000  C
  C42      1.0000 0.68020  0.59850  0.61320  Biso   1.000  C
  H30      1.0000 0.68100  0.46350  0.63720  Biso   1.000  H
  C43      1.0000 0.75560  0.72350  0.64490  Biso   1.000  C
  H31      1.0000 0.80580  0.67050  0.68830  Biso   1.000  H
  C44      1.0000 0.53760  0.48610  0.53070  Biso   1.000  C
  C45      1.0000 0.50740  0.61000  0.48810  Biso   1.000  C
  H32      1.0000 0.50660  0.47300  0.46180  Biso   1.000  H
  H33      1.0000 0.49200  0.53600  0.53540  Biso   1.000  H
  O7       1.0000 0.16497  0.25190  0.87999  Biso   1.000  O
  N7       1.0000 0.96152  0.37990  0.81523  Biso   1.000  N
  C46      1.0000 0.89320  0.33350  0.82930  Biso   1.000  C
  H34      1.0000 0.85530  0.21500  0.80740  Biso   1.000  H
  O8       1.0000 0.09566  0.97780  0.79858  Biso   1.000  O
  N8       1.0000 0.95626  0.63130  0.89703  Biso   1.000  N
  C47      1.0000 0.88930  0.48640  0.87980  Biso   1.000  C
  H35      1.0000 0.84910  0.49230  0.89910  Biso   1.000  H
  C48      1.0000 0.99791  0.55800  0.85676  Biso   1.000  C
  H36      1.0000 0.04650  0.62570  0.85840  Biso   1.000  H
  C49      1.0000 0.97841  0.81950  0.94903  Biso   1.000  C
  C50      1.0000 0.92690  0.87890  0.98280  Biso   1.000  C
  H37      1.0000 0.87730  0.79740  0.97160  Biso   1.000  H
  C51      1.0000 0.05140  0.94040  0.96650  Biso   1.000  C
  H38      1.0000 0.08680  0.90030  0.94400  Biso   1.000  H
  C52      1.0000 0.16351  0.06380  0.85422  Biso   1.000  C
  C53      1.0000 0.24426  0.92490  0.88780  Biso   1.000  C
  C54      1.0000 0.31920  0.99530  0.95230  Biso   1.000  C
  H39      1.0000 0.32080  0.13220  0.97550  Biso   1.000  H
  C55      1.0000 0.39250  0.86390  0.98320  Biso   1.000  C
  H40      1.0000 0.44230  0.91410  0.02770  Biso   1.000  H
  C56      1.0000 0.39460  0.66360  0.95100  Biso   1.000  C
  C57      1.0000 0.31980  0.59850  0.88680  Biso   1.000  C
  H41      1.0000 0.31900  0.46350  0.86280  Biso   1.000  H
  C58      1.0000 0.24440  0.72350  0.85510  Biso   1.000  C
  H42      1.0000 0.19420  0.67050  0.81170  Biso   1.000  H
  C59      1.0000 0.46240  0.48610  0.96930  Biso   1.000  C
  C60      1.0000 0.49260  0.61000  0.01190  Biso   1.000  C
  H43      1.0000 0.49340  0.47300  0.03820  Biso   1.000  H
  H44      1.0000 0.50800  0.53600  0.96460  Biso   1.000  H
  Zn1      1.0000 0.00000  0.80726  0.25000  Biso   1.000  Zn
  Zn2      1.0000 0.00000  0.19274  0.75000  Biso   1.000  Zn
