data_image0
_cell_length_a       14.1237
_cell_length_b       14.1237
_cell_length_c       19.8572
_cell_angle_alpha    90
_cell_angle_beta     90
_cell_angle_gamma    90

_symmetry_space_group_name_H-M    "P 1"
_symmetry_int_tables_number       1

loop_
  _symmetry_equiv_pos_as_xyz
  'x, y, z'

loop_
  _atom_site_label
  _atom_site_occupancy
  _atom_site_fract_x
  _atom_site_fract_y
  _atom_site_fract_z
  _atom_site_thermal_displace_type
  _atom_site_B_iso_or_equiv
  _atom_site_type_symbol
  N1       1.0000 0.39580  0.67010  0.56810  Biso   1.000  N
  C1       1.0000 0.38300  0.72720  0.62240  Biso   1.000  C
  H1       1.0000 0.42120  0.77840  0.63380  Biso   1.000  H
  O1       1.0000 0.40910  0.70010  0.57280  Biso   1.000  O
  C2       1.0000 0.34160  0.77690  0.69030  Biso   1.000  C
  H2       1.0000 0.39120  0.80910  0.66970  Biso   1.000  H
  N2       1.0000 0.89580  0.17010  0.06810  Biso   1.000  N
  C3       1.0000 0.88300  0.22720  0.12240  Biso   1.000  C
  H3       1.0000 0.92120  0.27840  0.13380  Biso   1.000  H
  O2       1.0000 0.90910  0.20010  0.07280  Biso   1.000  O
  C4       1.0000 0.84160  0.27690  0.19030  Biso   1.000  C
  H4       1.0000 0.89120  0.30910  0.16970  Biso   1.000  H
  N3       1.0000 0.60420  0.32990  0.56810  Biso   1.000  N
  C5       1.0000 0.61700  0.27280  0.62240  Biso   1.000  C
  H5       1.0000 0.57880  0.22160  0.63380  Biso   1.000  H
  O3       1.0000 0.59090  0.29990  0.57280  Biso   1.000  O
  C6       1.0000 0.65840  0.22310  0.69030  Biso   1.000  C
  H6       1.0000 0.60880  0.19090  0.66970  Biso   1.000  H
  N4       1.0000 0.10420  0.82990  0.06810  Biso   1.000  N
  C7       1.0000 0.11700  0.77280  0.12240  Biso   1.000  C
  H7       1.0000 0.07880  0.72160  0.13380  Biso   1.000  H
  O4       1.0000 0.09090  0.79990  0.07280  Biso   1.000  O
  C8       1.0000 0.15840  0.72310  0.19030  Biso   1.000  C
  H8       1.0000 0.10880  0.69090  0.16970  Biso   1.000  H
  N5       1.0000 0.32990  0.39580  0.56810  Biso   1.000  N
  C9       1.0000 0.27280  0.38300  0.62240  Biso   1.000  C
  H9       1.0000 0.22160  0.42120  0.63380  Biso   1.000  H
  O5       1.0000 0.29990  0.40910  0.57280  Biso   1.000  O
  C10      1.0000 0.22310  0.34160  0.69030  Biso   1.000  C
  H10      1.0000 0.19090  0.39120  0.66970  Biso   1.000  H
  N6       1.0000 0.82990  0.89580  0.06810  Biso   1.000  N
  C11      1.0000 0.77280  0.88300  0.12240  Biso   1.000  C
  H11      1.0000 0.72160  0.92120  0.13380  Biso   1.000  H
  O6       1.0000 0.79990  0.90910  0.07280  Biso   1.000  O
  C12      1.0000 0.72310  0.84160  0.19030  Biso   1.000  C
  H12      1.0000 0.69090  0.89120  0.16970  Biso   1.000  H
  N7       1.0000 0.67010  0.60420  0.56810  Biso   1.000  N
  C13      1.0000 0.72720  0.61700  0.62240  Biso   1.000  C
  H13      1.0000 0.77840  0.57880  0.63380  Biso   1.000  H
  O7       1.0000 0.70010  0.59090  0.57280  Biso   1.000  O
  C14      1.0000 0.77690  0.65840  0.69030  Biso   1.000  C
  H14      1.0000 0.80910  0.60880  0.66970  Biso   1.000  H
  N8       1.0000 0.17010  0.10420  0.06810  Biso   1.000  N
  C15      1.0000 0.22720  0.11700  0.12240  Biso   1.000  C
  H15      1.0000 0.27840  0.07880  0.13380  Biso   1.000  H
  O8       1.0000 0.20010  0.09090  0.07280  Biso   1.000  O
  C16      1.0000 0.27690  0.15840  0.19030  Biso   1.000  C
  H16      1.0000 0.30910  0.10880  0.16970  Biso   1.000  H
  N9       1.0000 0.60420  0.67010  0.43190  Biso   1.000  N
  C17      1.0000 0.61700  0.72720  0.37760  Biso   1.000  C
  H17      1.0000 0.57880  0.77840  0.36620  Biso   1.000  H
  O9       1.0000 0.59090  0.70010  0.42720  Biso   1.000  O
  C18      1.0000 0.65840  0.77690  0.30970  Biso   1.000  C
  H18      1.0000 0.60880  0.80910  0.33030  Biso   1.000  H
  N10      1.0000 0.10420  0.17010  0.93190  Biso   1.000  N
  C19      1.0000 0.11700  0.22720  0.87760  Biso   1.000  C
  H19      1.0000 0.07880  0.27840  0.86620  Biso   1.000  H
  O10      1.0000 0.09090  0.20010  0.92720  Biso   1.000  O
  C20      1.0000 0.15840  0.27690  0.80970  Biso   1.000  C
  H20      1.0000 0.10880  0.30910  0.83030  Biso   1.000  H
  N11      1.0000 0.39580  0.32990  0.43190  Biso   1.000  N
  C21      1.0000 0.38300  0.27280  0.37760  Biso   1.000  C
  H21      1.0000 0.42120  0.22160  0.36620  Biso   1.000  H
  O11      1.0000 0.40910  0.29990  0.42720  Biso   1.000  O
  C22      1.0000 0.34160  0.22310  0.30970  Biso   1.000  C
  H22      1.0000 0.39120  0.19090  0.33030  Biso   1.000  H
  N12      1.0000 0.89580  0.82990  0.93190  Biso   1.000  N
  C23      1.0000 0.88300  0.77280  0.87760  Biso   1.000  C
  H23      1.0000 0.92120  0.72160  0.86620  Biso   1.000  H
  O12      1.0000 0.90910  0.79990  0.92720  Biso   1.000  O
  C24      1.0000 0.84160  0.72310  0.80970  Biso   1.000  C
  H24      1.0000 0.89120  0.69090  0.83030  Biso   1.000  H
  N13      1.0000 0.67010  0.39580  0.43190  Biso   1.000  N
  C25      1.0000 0.72720  0.38300  0.37760  Biso   1.000  C
  H25      1.0000 0.77840  0.42120  0.36620  Biso   1.000  H
  O13      1.0000 0.70010  0.40910  0.42720  Biso   1.000  O
  C26      1.0000 0.77690  0.34160  0.30970  Biso   1.000  C
  H26      1.0000 0.80910  0.39120  0.33030  Biso   1.000  H
  N14      1.0000 0.17010  0.89580  0.93190  Biso   1.000  N
  C27      1.0000 0.22720  0.88300  0.87760  Biso   1.000  C
  H27      1.0000 0.27840  0.92120  0.86620  Biso   1.000  H
  O14      1.0000 0.20010  0.90910  0.92720  Biso   1.000  O
  C28      1.0000 0.27690  0.84160  0.80970  Biso   1.000  C
  H28      1.0000 0.30910  0.89120  0.83030  Biso   1.000  H
  N15      1.0000 0.32990  0.60420  0.43190  Biso   1.000  N
  C29      1.0000 0.27280  0.61700  0.37760  Biso   1.000  C
  H29      1.0000 0.22160  0.57880  0.36620  Biso   1.000  H
  O15      1.0000 0.29990  0.59090  0.42720  Biso   1.000  O
  C30      1.0000 0.22310  0.65840  0.30970  Biso   1.000  C
  H30      1.0000 0.19090  0.60880  0.33030  Biso   1.000  H
  N16      1.0000 0.82990  0.10420  0.93190  Biso   1.000  N
  C31      1.0000 0.77280  0.11700  0.87760  Biso   1.000  C
  H31      1.0000 0.72160  0.07880  0.86620  Biso   1.000  H
  O16      1.0000 0.79990  0.09090  0.92720  Biso   1.000  O
  C32      1.0000 0.72310  0.15840  0.80970  Biso   1.000  C
  H32      1.0000 0.69090  0.10880  0.83030  Biso   1.000  H
  N17      1.0000 0.60420  0.32990  0.43190  Biso   1.000  N
  C33      1.0000 0.61700  0.27280  0.37760  Biso   1.000  C
  H33      1.0000 0.57880  0.22160  0.36620  Biso   1.000  H
  O17      1.0000 0.59090  0.29990  0.42720  Biso   1.000  O
  C34      1.0000 0.65840  0.22310  0.30970  Biso   1.000  C
  H34      1.0000 0.60880  0.19090  0.33030  Biso   1.000  H
  N18      1.0000 0.10420  0.82990  0.93190  Biso   1.000  N
  C35      1.0000 0.11700  0.77280  0.87760  Biso   1.000  C
  H35      1.0000 0.07880  0.72160  0.86620  Biso   1.000  H
  O18      1.0000 0.09090  0.79990  0.92720  Biso   1.000  O
  C36      1.0000 0.15840  0.72310  0.80970  Biso   1.000  C
  H36      1.0000 0.10880  0.69090  0.83030  Biso   1.000  H
  N19      1.0000 0.39580  0.67010  0.43190  Biso   1.000  N
  C37      1.0000 0.38300  0.72720  0.37760  Biso   1.000  C
  H37      1.0000 0.42120  0.77840  0.36620  Biso   1.000  H
  O19      1.0000 0.40910  0.70010  0.42720  Biso   1.000  O
  C38      1.0000 0.34160  0.77690  0.30970  Biso   1.000  C
  H38      1.0000 0.39120  0.80910  0.33030  Biso   1.000  H
  N20      1.0000 0.89580  0.17010  0.93190  Biso   1.000  N
  C39      1.0000 0.88300  0.22720  0.87760  Biso   1.000  C
  H39      1.0000 0.92120  0.27840  0.86620  Biso   1.000  H
  O20      1.0000 0.90910  0.20010  0.92720  Biso   1.000  O
  C40      1.0000 0.84160  0.27690  0.80970  Biso   1.000  C
  H40      1.0000 0.89120  0.30910  0.83030  Biso   1.000  H
  N21      1.0000 0.67010  0.60420  0.43190  Biso   1.000  N
  C41      1.0000 0.72720  0.61700  0.37760  Biso   1.000  C
  H41      1.0000 0.77840  0.57880  0.36620  Biso   1.000  H
  O21      1.0000 0.70010  0.59090  0.42720  Biso   1.000  O
  C42      1.0000 0.77690  0.65840  0.30970  Biso   1.000  C
  H42      1.0000 0.80910  0.60880  0.33030  Biso   1.000  H
  N22      1.0000 0.17010  0.10420  0.93190  Biso   1.000  N
  C43      1.0000 0.22720  0.11700  0.87760  Biso   1.000  C
  H43      1.0000 0.27840  0.07880  0.86620  Biso   1.000  H
  O22      1.0000 0.20010  0.09090  0.92720  Biso   1.000  O
  C44      1.0000 0.27690  0.15840  0.80970  Biso   1.000  C
  H44      1.0000 0.30910  0.10880  0.83030  Biso   1.000  H
  N23      1.0000 0.32990  0.39580  0.43190  Biso   1.000  N
  C45      1.0000 0.27280  0.38300  0.37760  Biso   1.000  C
  H45      1.0000 0.22160  0.42120  0.36620  Biso   1.000  H
  O23      1.0000 0.29990  0.40910  0.42720  Biso   1.000  O
  C46      1.0000 0.22310  0.34160  0.30970  Biso   1.000  C
  H46      1.0000 0.19090  0.39120  0.33030  Biso   1.000  H
  N24      1.0000 0.82990  0.89580  0.93190  Biso   1.000  N
  C47      1.0000 0.77280  0.88300  0.87760  Biso   1.000  C
  H47      1.0000 0.72160  0.92120  0.86620  Biso   1.000  H
  O24      1.0000 0.79990  0.90910  0.92720  Biso   1.000  O
  C48      1.0000 0.72310  0.84160  0.80970  Biso   1.000  C
  H48      1.0000 0.69090  0.89120  0.83030  Biso   1.000  H
  N25      1.0000 0.39580  0.32990  0.56810  Biso   1.000  N
  C49      1.0000 0.38300  0.27280  0.62240  Biso   1.000  C
  H49      1.0000 0.42120  0.22160  0.63380  Biso   1.000  H
  O25      1.0000 0.40910  0.29990  0.57280  Biso   1.000  O
  C50      1.0000 0.34160  0.22310  0.69030  Biso   1.000  C
  H50      1.0000 0.39120  0.19090  0.66970  Biso   1.000  H
  N26      1.0000 0.89580  0.82990  0.06810  Biso   1.000  N
  C51      1.0000 0.88300  0.77280  0.12240  Biso   1.000  C
  H51      1.0000 0.92120  0.72160  0.13380  Biso   1.000  H
  O26      1.0000 0.90910  0.79990  0.07280  Biso   1.000  O
  C52      1.0000 0.84160  0.72310  0.19030  Biso   1.000  C
  H52      1.0000 0.89120  0.69090  0.16970  Biso   1.000  H
  N27      1.0000 0.60420  0.67010  0.56810  Biso   1.000  N
  C53      1.0000 0.61700  0.72720  0.62240  Biso   1.000  C
  H53      1.0000 0.57880  0.77840  0.63380  Biso   1.000  H
  O27      1.0000 0.59090  0.70010  0.57280  Biso   1.000  O
  C54      1.0000 0.65840  0.77690  0.69030  Biso   1.000  C
  H54      1.0000 0.60880  0.80910  0.66970  Biso   1.000  H
  N28      1.0000 0.10420  0.17010  0.06810  Biso   1.000  N
  C55      1.0000 0.11700  0.22720  0.12240  Biso   1.000  C
  H55      1.0000 0.07880  0.27840  0.13380  Biso   1.000  H
  O28      1.0000 0.09090  0.20010  0.07280  Biso   1.000  O
  C56      1.0000 0.15840  0.27690  0.19030  Biso   1.000  C
  H56      1.0000 0.10880  0.30910  0.16970  Biso   1.000  H
  N29      1.0000 0.32990  0.60420  0.56810  Biso   1.000  N
  C57      1.0000 0.27280  0.61700  0.62240  Biso   1.000  C
  H57      1.0000 0.22160  0.57880  0.63380  Biso   1.000  H
  O29      1.0000 0.29990  0.59090  0.57280  Biso   1.000  O
  C58      1.0000 0.22310  0.65840  0.69030  Biso   1.000  C
  H58      1.0000 0.19090  0.60880  0.66970  Biso   1.000  H
  N30      1.0000 0.82990  0.10420  0.06810  Biso   1.000  N
  C59      1.0000 0.77280  0.11700  0.12240  Biso   1.000  C
  H59      1.0000 0.72160  0.07880  0.13380  Biso   1.000  H
  O30      1.0000 0.79990  0.09090  0.07280  Biso   1.000  O
  C60      1.0000 0.72310  0.15840  0.19030  Biso   1.000  C
  H60      1.0000 0.69090  0.10880  0.16970  Biso   1.000  H
  N31      1.0000 0.67010  0.39580  0.56810  Biso   1.000  N
  C61      1.0000 0.72720  0.38300  0.62240  Biso   1.000  C
  H61      1.0000 0.77840  0.42120  0.63380  Biso   1.000  H
  O31      1.0000 0.70010  0.40910  0.57280  Biso   1.000  O
  C62      1.0000 0.77690  0.34160  0.69030  Biso   1.000  C
  H62      1.0000 0.80910  0.39120  0.66970  Biso   1.000  H
  N32      1.0000 0.17010  0.89580  0.06810  Biso   1.000  N
  C63      1.0000 0.22720  0.88300  0.12240  Biso   1.000  C
  H63      1.0000 0.27840  0.92120  0.13380  Biso   1.000  H
  O32      1.0000 0.20010  0.90910  0.07280  Biso   1.000  O
  C64      1.0000 0.27690  0.84160  0.19030  Biso   1.000  C
  H64      1.0000 0.30910  0.89120  0.16970  Biso   1.000  H
  Cu1      1.0000 0.50000  0.67915  0.50000  Biso   1.000  Cu
  Cu2      1.0000 0.00000  0.17915  0.00000  Biso   1.000  Cu
  Cu3      1.0000 0.50000  0.32085  0.50000  Biso   1.000  Cu
  Cu4      1.0000 0.00000  0.82085  0.00000  Biso   1.000  Cu
  Cu5      1.0000 0.32085  0.50000  0.50000  Biso   1.000  Cu
  Cu6      1.0000 0.82085  0.00000  0.00000  Biso   1.000  Cu
  Cu7      1.0000 0.67915  0.50000  0.50000  Biso   1.000  Cu
  Cu8      1.0000 0.17915  0.00000  0.00000  Biso   1.000  Cu
  Cl1      1.0000 0.50000  0.50000  0.50000  Biso   1.000  Cl
  Cl2      1.0000 0.00000  0.00000  0.00000  Biso   1.000  Cl
  C65      1.0000 0.30300  0.69700  0.65880  Biso   1.000  C
  C66      1.0000 0.26700  0.73300  0.71930  Biso   1.000  C
  C67      1.0000 0.34020  0.65980  0.59560  Biso   1.000  C
  C68      1.0000 0.80300  0.19700  0.15880  Biso   1.000  C
  C69      1.0000 0.76700  0.23300  0.21930  Biso   1.000  C
  C70      1.0000 0.84020  0.15980  0.09560  Biso   1.000  C
  C71      1.0000 0.69700  0.30300  0.65880  Biso   1.000  C
  C72      1.0000 0.73300  0.26700  0.71930  Biso   1.000  C
  C73      1.0000 0.65980  0.34020  0.59560  Biso   1.000  C
  C74      1.0000 0.19700  0.80300  0.15880  Biso   1.000  C
  C75      1.0000 0.23300  0.76700  0.21930  Biso   1.000  C
  C76      1.0000 0.15980  0.84020  0.09560  Biso   1.000  C
  C77      1.0000 0.30300  0.30300  0.65880  Biso   1.000  C
  C78      1.0000 0.26700  0.26700  0.71930  Biso   1.000  C
  C79      1.0000 0.34020  0.34020  0.59560  Biso   1.000  C
  C80      1.0000 0.80300  0.80300  0.15880  Biso   1.000  C
  C81      1.0000 0.76700  0.76700  0.21930  Biso   1.000  C
  C82      1.0000 0.84020  0.84020  0.09560  Biso   1.000  C
  C83      1.0000 0.69700  0.69700  0.65880  Biso   1.000  C
  C84      1.0000 0.73300  0.73300  0.71930  Biso   1.000  C
  C85      1.0000 0.65980  0.65980  0.59560  Biso   1.000  C
  C86      1.0000 0.19700  0.19700  0.15880  Biso   1.000  C
  C87      1.0000 0.23300  0.23300  0.21930  Biso   1.000  C
  C88      1.0000 0.15980  0.15980  0.09560  Biso   1.000  C
  C89      1.0000 0.69700  0.69700  0.34120  Biso   1.000  C
  C90      1.0000 0.73300  0.73300  0.28070  Biso   1.000  C
  C91      1.0000 0.65980  0.65980  0.40440  Biso   1.000  C
  C92      1.0000 0.19700  0.19700  0.84120  Biso   1.000  C
  C93      1.0000 0.23300  0.23300  0.78070  Biso   1.000  C
  C94      1.0000 0.15980  0.15980  0.90440  Biso   1.000  C
  C95      1.0000 0.30300  0.30300  0.34120  Biso   1.000  C
  C96      1.0000 0.26700  0.26700  0.28070  Biso   1.000  C
  C97      1.0000 0.34020  0.34020  0.40440  Biso   1.000  C
  C98      1.0000 0.80300  0.80300  0.84120  Biso   1.000  C
  C99      1.0000 0.76700  0.76700  0.78070  Biso   1.000  C
  C100     1.0000 0.84020  0.84020  0.90440  Biso   1.000  C
  C101     1.0000 0.69700  0.30300  0.34120  Biso   1.000  C
  C102     1.0000 0.73300  0.26700  0.28070  Biso   1.000  C
  C103     1.0000 0.65980  0.34020  0.40440  Biso   1.000  C
  C104     1.0000 0.19700  0.80300  0.84120  Biso   1.000  C
  C105     1.0000 0.23300  0.76700  0.78070  Biso   1.000  C
  C106     1.0000 0.15980  0.84020  0.90440  Biso   1.000  C
  C107     1.0000 0.30300  0.69700  0.34120  Biso   1.000  C
  C108     1.0000 0.26700  0.73300  0.28070  Biso   1.000  C
  C109     1.0000 0.34020  0.65980  0.40440  Biso   1.000  C
  C110     1.0000 0.80300  0.19700  0.84120  Biso   1.000  C
  C111     1.0000 0.76700  0.23300  0.78070  Biso   1.000  C
  C112     1.0000 0.84020  0.15980  0.90440  Biso   1.000  C
  C113     1.0000 0.30800  0.80800  0.75000  Biso   1.000  C
  H65      1.0000 0.35450  0.85450  0.75000  Biso   1.000  H
  C114     1.0000 0.69200  0.19200  0.75000  Biso   1.000  C
  H66      1.0000 0.64550  0.14550  0.75000  Biso   1.000  H
  C115     1.0000 0.19200  0.30800  0.75000  Biso   1.000  C
  H67      1.0000 0.14550  0.35450  0.75000  Biso   1.000  H
  C116     1.0000 0.80800  0.69200  0.75000  Biso   1.000  C
  H68      1.0000 0.85450  0.64550  0.75000  Biso   1.000  H
  C117     1.0000 0.69200  0.80800  0.25000  Biso   1.000  C
  H69      1.0000 0.64550  0.85450  0.25000  Biso   1.000  H
  C118     1.0000 0.30800  0.19200  0.25000  Biso   1.000  C
  H70      1.0000 0.35450  0.14550  0.25000  Biso   1.000  H
  C119     1.0000 0.80800  0.30800  0.25000  Biso   1.000  C
  H71      1.0000 0.85450  0.35450  0.25000  Biso   1.000  H
  C120     1.0000 0.19200  0.69200  0.25000  Biso   1.000  C
  H72      1.0000 0.14550  0.64550  0.25000  Biso   1.000  H
  C121     1.0000 0.69200  0.19200  0.25000  Biso   1.000  C
  H73      1.0000 0.64550  0.14550  0.25000  Biso   1.000  H
  C122     1.0000 0.30800  0.80800  0.25000  Biso   1.000  C
  H74      1.0000 0.35450  0.85450  0.25000  Biso   1.000  H
  C123     1.0000 0.80800  0.69200  0.25000  Biso   1.000  C
  H75      1.0000 0.85450  0.64550  0.25000  Biso   1.000  H
  C124     1.0000 0.19200  0.30800  0.25000  Biso   1.000  C
  H76      1.0000 0.14550  0.35450  0.25000  Biso   1.000  H
  C125     1.0000 0.30800  0.19200  0.75000  Biso   1.000  C
  H77      1.0000 0.35450  0.14550  0.75000  Biso   1.000  H
  C126     1.0000 0.69200  0.80800  0.75000  Biso   1.000  C
  H78      1.0000 0.64550  0.85450  0.75000  Biso   1.000  H
  C127     1.0000 0.19200  0.69200  0.75000  Biso   1.000  C
  H79      1.0000 0.14550  0.64550  0.75000  Biso   1.000  H
  C128     1.0000 0.80800  0.30800  0.75000  Biso   1.000  C
  H80      1.0000 0.85450  0.35450  0.75000  Biso   1.000  H
