data_image0
_cell_length_a       14.0241
_cell_length_b       14.0241
_cell_length_c       19.9373
_cell_angle_alpha    90
_cell_angle_beta     90
_cell_angle_gamma    90

_symmetry_space_group_name_H-M    "P 1"
_symmetry_int_tables_number       1

loop_
  _symmetry_equiv_pos_as_xyz
  'x, y, z'

loop_
  _atom_site_label
  _atom_site_occupancy
  _atom_site_fract_x
  _atom_site_fract_y
  _atom_site_fract_z
  _atom_site_thermal_displace_type
  _atom_site_B_iso_or_equiv
  _atom_site_type_symbol
  N1       1.0000 0.17370  0.89410  0.93190  Biso   1.000  N
  C1       1.0000 0.22210  0.88560  0.87620  Biso   1.000  C
  H1       1.0000 0.26880  0.93000  0.86160  Biso   1.000  H
  C2       1.0000 0.28240  0.83380  0.81200  Biso   1.000  C
  H2       1.0000 0.32320  0.87410  0.83740  Biso   1.000  H
  O1       1.0000 0.20230  0.90990  0.92650  Biso   1.000  O
  N2       1.0000 0.67370  0.39410  0.43190  Biso   1.000  N
  C3       1.0000 0.72210  0.38560  0.37620  Biso   1.000  C
  H3       1.0000 0.76880  0.43000  0.36160  Biso   1.000  H
  C4       1.0000 0.78240  0.33380  0.31200  Biso   1.000  C
  H4       1.0000 0.82320  0.37410  0.33740  Biso   1.000  H
  O2       1.0000 0.70230  0.40990  0.42650  Biso   1.000  O
  N3       1.0000 0.82630  0.10590  0.93190  Biso   1.000  N
  C5       1.0000 0.77790  0.11440  0.87620  Biso   1.000  C
  H5       1.0000 0.73120  0.07000  0.86160  Biso   1.000  H
  C6       1.0000 0.71760  0.16620  0.81200  Biso   1.000  C
  H6       1.0000 0.67680  0.12590  0.83740  Biso   1.000  H
  O3       1.0000 0.79770  0.09010  0.92650  Biso   1.000  O
  N4       1.0000 0.32630  0.60590  0.43190  Biso   1.000  N
  C7       1.0000 0.27790  0.61440  0.37620  Biso   1.000  C
  H7       1.0000 0.23120  0.57000  0.36160  Biso   1.000  H
  C8       1.0000 0.21760  0.66620  0.31200  Biso   1.000  C
  H8       1.0000 0.17680  0.62590  0.33740  Biso   1.000  H
  O4       1.0000 0.29770  0.59010  0.42650  Biso   1.000  O
  N5       1.0000 0.10590  0.17370  0.93190  Biso   1.000  N
  C9       1.0000 0.11440  0.22210  0.87620  Biso   1.000  C
  H9       1.0000 0.07000  0.26880  0.86160  Biso   1.000  H
  C10      1.0000 0.16620  0.28240  0.81200  Biso   1.000  C
  H10      1.0000 0.12590  0.32320  0.83740  Biso   1.000  H
  O5       1.0000 0.09010  0.20230  0.92650  Biso   1.000  O
  N6       1.0000 0.60590  0.67370  0.43190  Biso   1.000  N
  C11      1.0000 0.61440  0.72210  0.37620  Biso   1.000  C
  H11      1.0000 0.57000  0.76880  0.36160  Biso   1.000  H
  C12      1.0000 0.66620  0.78240  0.31200  Biso   1.000  C
  H12      1.0000 0.62590  0.82320  0.33740  Biso   1.000  H
  O6       1.0000 0.59010  0.70230  0.42650  Biso   1.000  O
  N7       1.0000 0.89410  0.82630  0.93190  Biso   1.000  N
  C13      1.0000 0.88560  0.77790  0.87620  Biso   1.000  C
  H13      1.0000 0.93000  0.73120  0.86160  Biso   1.000  H
  C14      1.0000 0.83380  0.71760  0.81200  Biso   1.000  C
  H14      1.0000 0.87410  0.67680  0.83740  Biso   1.000  H
  O7       1.0000 0.90990  0.79770  0.92650  Biso   1.000  O
  N8       1.0000 0.39410  0.32630  0.43190  Biso   1.000  N
  C15      1.0000 0.38560  0.27790  0.37620  Biso   1.000  C
  H15      1.0000 0.43000  0.23120  0.36160  Biso   1.000  H
  C16      1.0000 0.33380  0.21760  0.31200  Biso   1.000  C
  H16      1.0000 0.37410  0.17680  0.33740  Biso   1.000  H
  O8       1.0000 0.40990  0.29770  0.42650  Biso   1.000  O
  N9       1.0000 0.82630  0.89410  0.06810  Biso   1.000  N
  C17      1.0000 0.77790  0.88560  0.12380  Biso   1.000  C
  H17      1.0000 0.73120  0.93000  0.13840  Biso   1.000  H
  C18      1.0000 0.71760  0.83380  0.18800  Biso   1.000  C
  H18      1.0000 0.67680  0.87410  0.16260  Biso   1.000  H
  O9       1.0000 0.79770  0.90990  0.07350  Biso   1.000  O
  N10      1.0000 0.32630  0.39410  0.56810  Biso   1.000  N
  C19      1.0000 0.27790  0.38560  0.62380  Biso   1.000  C
  H19      1.0000 0.23120  0.43000  0.63840  Biso   1.000  H
  C20      1.0000 0.21760  0.33380  0.68800  Biso   1.000  C
  H20      1.0000 0.17680  0.37410  0.66260  Biso   1.000  H
  O10      1.0000 0.29770  0.40990  0.57350  Biso   1.000  O
  N11      1.0000 0.17370  0.10590  0.06810  Biso   1.000  N
  C21      1.0000 0.22210  0.11440  0.12380  Biso   1.000  C
  H21      1.0000 0.26880  0.07000  0.13840  Biso   1.000  H
  C22      1.0000 0.28240  0.16620  0.18800  Biso   1.000  C
  H22      1.0000 0.32320  0.12590  0.16260  Biso   1.000  H
  O11      1.0000 0.20230  0.09010  0.07350  Biso   1.000  O
  N12      1.0000 0.67370  0.60590  0.56810  Biso   1.000  N
  C23      1.0000 0.72210  0.61440  0.62380  Biso   1.000  C
  H23      1.0000 0.76880  0.57000  0.63840  Biso   1.000  H
  C24      1.0000 0.78240  0.66620  0.68800  Biso   1.000  C
  H24      1.0000 0.82320  0.62590  0.66260  Biso   1.000  H
  O12      1.0000 0.70230  0.59010  0.57350  Biso   1.000  O
  N13      1.0000 0.89410  0.17370  0.06810  Biso   1.000  N
  C25      1.0000 0.88560  0.22210  0.12380  Biso   1.000  C
  H25      1.0000 0.93000  0.26880  0.13840  Biso   1.000  H
  C26      1.0000 0.83380  0.28240  0.18800  Biso   1.000  C
  H26      1.0000 0.87410  0.32320  0.16260  Biso   1.000  H
  O13      1.0000 0.90990  0.20230  0.07350  Biso   1.000  O
  N14      1.0000 0.39410  0.67370  0.56810  Biso   1.000  N
  C27      1.0000 0.38560  0.72210  0.62380  Biso   1.000  C
  H27      1.0000 0.43000  0.76880  0.63840  Biso   1.000  H
  C28      1.0000 0.33380  0.78240  0.68800  Biso   1.000  C
  H28      1.0000 0.37410  0.82320  0.66260  Biso   1.000  H
  O14      1.0000 0.40990  0.70230  0.57350  Biso   1.000  O
  N15      1.0000 0.10590  0.82630  0.06810  Biso   1.000  N
  C29      1.0000 0.11440  0.77790  0.12380  Biso   1.000  C
  H29      1.0000 0.07000  0.73120  0.13840  Biso   1.000  H
  C30      1.0000 0.16620  0.71760  0.18800  Biso   1.000  C
  H30      1.0000 0.12590  0.67680  0.16260  Biso   1.000  H
  O15      1.0000 0.09010  0.79770  0.07350  Biso   1.000  O
  N16      1.0000 0.60590  0.32630  0.56810  Biso   1.000  N
  C31      1.0000 0.61440  0.27790  0.62380  Biso   1.000  C
  H31      1.0000 0.57000  0.23120  0.63840  Biso   1.000  H
  C32      1.0000 0.66620  0.21760  0.68800  Biso   1.000  C
  H32      1.0000 0.62590  0.17680  0.66260  Biso   1.000  H
  O16      1.0000 0.59010  0.29770  0.57350  Biso   1.000  O
  N17      1.0000 0.82630  0.10590  0.06810  Biso   1.000  N
  C33      1.0000 0.77790  0.11440  0.12380  Biso   1.000  C
  H33      1.0000 0.73120  0.07000  0.13840  Biso   1.000  H
  C34      1.0000 0.71760  0.16620  0.18800  Biso   1.000  C
  H34      1.0000 0.67680  0.12590  0.16260  Biso   1.000  H
  O17      1.0000 0.79770  0.09010  0.07350  Biso   1.000  O
  N18      1.0000 0.32630  0.60590  0.56810  Biso   1.000  N
  C35      1.0000 0.27790  0.61440  0.62380  Biso   1.000  C
  H35      1.0000 0.23120  0.57000  0.63840  Biso   1.000  H
  C36      1.0000 0.21760  0.66620  0.68800  Biso   1.000  C
  H36      1.0000 0.17680  0.62590  0.66260  Biso   1.000  H
  O18      1.0000 0.29770  0.59010  0.57350  Biso   1.000  O
  N19      1.0000 0.17370  0.89410  0.06810  Biso   1.000  N
  C37      1.0000 0.22210  0.88560  0.12380  Biso   1.000  C
  H37      1.0000 0.26880  0.93000  0.13840  Biso   1.000  H
  C38      1.0000 0.28240  0.83380  0.18800  Biso   1.000  C
  H38      1.0000 0.32320  0.87410  0.16260  Biso   1.000  H
  O19      1.0000 0.20230  0.90990  0.07350  Biso   1.000  O
  N20      1.0000 0.67370  0.39410  0.56810  Biso   1.000  N
  C39      1.0000 0.72210  0.38560  0.62380  Biso   1.000  C
  H39      1.0000 0.76880  0.43000  0.63840  Biso   1.000  H
  C40      1.0000 0.78240  0.33380  0.68800  Biso   1.000  C
  H40      1.0000 0.82320  0.37410  0.66260  Biso   1.000  H
  O20      1.0000 0.70230  0.40990  0.57350  Biso   1.000  O
  N21      1.0000 0.89410  0.82630  0.06810  Biso   1.000  N
  C41      1.0000 0.88560  0.77790  0.12380  Biso   1.000  C
  H41      1.0000 0.93000  0.73120  0.13840  Biso   1.000  H
  C42      1.0000 0.83380  0.71760  0.18800  Biso   1.000  C
  H42      1.0000 0.87410  0.67680  0.16260  Biso   1.000  H
  O21      1.0000 0.90990  0.79770  0.07350  Biso   1.000  O
  N22      1.0000 0.39410  0.32630  0.56810  Biso   1.000  N
  C43      1.0000 0.38560  0.27790  0.62380  Biso   1.000  C
  H43      1.0000 0.43000  0.23120  0.63840  Biso   1.000  H
  C44      1.0000 0.33380  0.21760  0.68800  Biso   1.000  C
  H44      1.0000 0.37410  0.17680  0.66260  Biso   1.000  H
  O22      1.0000 0.40990  0.29770  0.57350  Biso   1.000  O
  N23      1.0000 0.10590  0.17370  0.06810  Biso   1.000  N
  C45      1.0000 0.11440  0.22210  0.12380  Biso   1.000  C
  H45      1.0000 0.07000  0.26880  0.13840  Biso   1.000  H
  C46      1.0000 0.16620  0.28240  0.18800  Biso   1.000  C
  H46      1.0000 0.12590  0.32320  0.16260  Biso   1.000  H
  O23      1.0000 0.09010  0.20230  0.07350  Biso   1.000  O
  N24      1.0000 0.60590  0.67370  0.56810  Biso   1.000  N
  C47      1.0000 0.61440  0.72210  0.62380  Biso   1.000  C
  H47      1.0000 0.57000  0.76880  0.63840  Biso   1.000  H
  C48      1.0000 0.66620  0.78240  0.68800  Biso   1.000  C
  H48      1.0000 0.62590  0.82320  0.66260  Biso   1.000  H
  O24      1.0000 0.59010  0.70230  0.57350  Biso   1.000  O
  N25      1.0000 0.17370  0.10590  0.93190  Biso   1.000  N
  C49      1.0000 0.22210  0.11440  0.87620  Biso   1.000  C
  H49      1.0000 0.26880  0.07000  0.86160  Biso   1.000  H
  C50      1.0000 0.28240  0.16620  0.81200  Biso   1.000  C
  H50      1.0000 0.32320  0.12590  0.83740  Biso   1.000  H
  O25      1.0000 0.20230  0.09010  0.92650  Biso   1.000  O
  N26      1.0000 0.67370  0.60590  0.43190  Biso   1.000  N
  C51      1.0000 0.72210  0.61440  0.37620  Biso   1.000  C
  H51      1.0000 0.76880  0.57000  0.36160  Biso   1.000  H
  C52      1.0000 0.78240  0.66620  0.31200  Biso   1.000  C
  H52      1.0000 0.82320  0.62590  0.33740  Biso   1.000  H
  O26      1.0000 0.70230  0.59010  0.42650  Biso   1.000  O
  N27      1.0000 0.82630  0.89410  0.93190  Biso   1.000  N
  C53      1.0000 0.77790  0.88560  0.87620  Biso   1.000  C
  H53      1.0000 0.73120  0.93000  0.86160  Biso   1.000  H
  C54      1.0000 0.71760  0.83380  0.81200  Biso   1.000  C
  H54      1.0000 0.67680  0.87410  0.83740  Biso   1.000  H
  O27      1.0000 0.79770  0.90990  0.92650  Biso   1.000  O
  N28      1.0000 0.32630  0.39410  0.43190  Biso   1.000  N
  C55      1.0000 0.27790  0.38560  0.37620  Biso   1.000  C
  H55      1.0000 0.23120  0.43000  0.36160  Biso   1.000  H
  C56      1.0000 0.21760  0.33380  0.31200  Biso   1.000  C
  H56      1.0000 0.17680  0.37410  0.33740  Biso   1.000  H
  O28      1.0000 0.29770  0.40990  0.42650  Biso   1.000  O
  N29      1.0000 0.10590  0.82630  0.93190  Biso   1.000  N
  C57      1.0000 0.11440  0.77790  0.87620  Biso   1.000  C
  H57      1.0000 0.07000  0.73120  0.86160  Biso   1.000  H
  C58      1.0000 0.16620  0.71760  0.81200  Biso   1.000  C
  H58      1.0000 0.12590  0.67680  0.83740  Biso   1.000  H
  O29      1.0000 0.09010  0.79770  0.92650  Biso   1.000  O
  N30      1.0000 0.60590  0.32630  0.43190  Biso   1.000  N
  C59      1.0000 0.61440  0.27790  0.37620  Biso   1.000  C
  H59      1.0000 0.57000  0.23120  0.36160  Biso   1.000  H
  C60      1.0000 0.66620  0.21760  0.31200  Biso   1.000  C
  H60      1.0000 0.62590  0.17680  0.33740  Biso   1.000  H
  O30      1.0000 0.59010  0.29770  0.42650  Biso   1.000  O
  N31      1.0000 0.89410  0.17370  0.93190  Biso   1.000  N
  C61      1.0000 0.88560  0.22210  0.87620  Biso   1.000  C
  H61      1.0000 0.93000  0.26880  0.86160  Biso   1.000  H
  C62      1.0000 0.83380  0.28240  0.81200  Biso   1.000  C
  H62      1.0000 0.87410  0.32320  0.83740  Biso   1.000  H
  O31      1.0000 0.90990  0.20230  0.92650  Biso   1.000  O
  N32      1.0000 0.39410  0.67370  0.43190  Biso   1.000  N
  C63      1.0000 0.38560  0.72210  0.37620  Biso   1.000  C
  H63      1.0000 0.43000  0.76880  0.36160  Biso   1.000  H
  C64      1.0000 0.33380  0.78240  0.31200  Biso   1.000  C
  H64      1.0000 0.37410  0.82320  0.33740  Biso   1.000  H
  O32      1.0000 0.40990  0.70230  0.42650  Biso   1.000  O
  Cu1      1.0000 0.18067  0.00000  0.00000  Biso   1.000  Cu
  Cu2      1.0000 0.68067  0.50000  0.50000  Biso   1.000  Cu
  Cu3      1.0000 0.81933  0.00000  0.00000  Biso   1.000  Cu
  Cu4      1.0000 0.31933  0.50000  0.50000  Biso   1.000  Cu
  Cu5      1.0000 0.00000  0.18067  0.00000  Biso   1.000  Cu
  Cu6      1.0000 0.50000  0.68067  0.50000  Biso   1.000  Cu
  Cu7      1.0000 0.00000  0.81933  0.00000  Biso   1.000  Cu
  Cu8      1.0000 0.50000  0.31933  0.50000  Biso   1.000  Cu
  Cl1      1.0000 0.00000  0.00000  0.00000  Biso   1.000  Cl
  Cl2      1.0000 0.50000  0.50000  0.50000  Biso   1.000  Cl
  C65      1.0000 0.19700  0.80300  0.84060  Biso   1.000  C
  C66      1.0000 0.22410  0.77590  0.77820  Biso   1.000  C
  C67      1.0000 0.16370  0.83630  0.90320  Biso   1.000  C
  C68      1.0000 0.69700  0.30300  0.34060  Biso   1.000  C
  C69      1.0000 0.72410  0.27590  0.27820  Biso   1.000  C
  C70      1.0000 0.66370  0.33630  0.40320  Biso   1.000  C
  C71      1.0000 0.80300  0.19700  0.84060  Biso   1.000  C
  C72      1.0000 0.77590  0.22410  0.77820  Biso   1.000  C
  C73      1.0000 0.83630  0.16370  0.90320  Biso   1.000  C
  C74      1.0000 0.30300  0.69700  0.34060  Biso   1.000  C
  C75      1.0000 0.27590  0.72410  0.27820  Biso   1.000  C
  C76      1.0000 0.33630  0.66370  0.40320  Biso   1.000  C
  C77      1.0000 0.19700  0.19700  0.84060  Biso   1.000  C
  C78      1.0000 0.22410  0.22410  0.77820  Biso   1.000  C
  C79      1.0000 0.16370  0.16370  0.90320  Biso   1.000  C
  C80      1.0000 0.69700  0.69700  0.34060  Biso   1.000  C
  C81      1.0000 0.72410  0.72410  0.27820  Biso   1.000  C
  C82      1.0000 0.66370  0.66370  0.40320  Biso   1.000  C
  C83      1.0000 0.80300  0.80300  0.84060  Biso   1.000  C
  C84      1.0000 0.77590  0.77590  0.77820  Biso   1.000  C
  C85      1.0000 0.83630  0.83630  0.90320  Biso   1.000  C
  C86      1.0000 0.30300  0.30300  0.34060  Biso   1.000  C
  C87      1.0000 0.27590  0.27590  0.27820  Biso   1.000  C
  C88      1.0000 0.33630  0.33630  0.40320  Biso   1.000  C
  C89      1.0000 0.80300  0.80300  0.15940  Biso   1.000  C
  C90      1.0000 0.77590  0.77590  0.22180  Biso   1.000  C
  C91      1.0000 0.83630  0.83630  0.09680  Biso   1.000  C
  C92      1.0000 0.30300  0.30300  0.65940  Biso   1.000  C
  C93      1.0000 0.27590  0.27590  0.72180  Biso   1.000  C
  C94      1.0000 0.33630  0.33630  0.59680  Biso   1.000  C
  C95      1.0000 0.19700  0.19700  0.15940  Biso   1.000  C
  C96      1.0000 0.22410  0.22410  0.22180  Biso   1.000  C
  C97      1.0000 0.16370  0.16370  0.09680  Biso   1.000  C
  C98      1.0000 0.69700  0.69700  0.65940  Biso   1.000  C
  C99      1.0000 0.72410  0.72410  0.72180  Biso   1.000  C
  C100     1.0000 0.66370  0.66370  0.59680  Biso   1.000  C
  C101     1.0000 0.80300  0.19700  0.15940  Biso   1.000  C
  C102     1.0000 0.77590  0.22410  0.22180  Biso   1.000  C
  C103     1.0000 0.83630  0.16370  0.09680  Biso   1.000  C
  C104     1.0000 0.30300  0.69700  0.65940  Biso   1.000  C
  C105     1.0000 0.27590  0.72410  0.72180  Biso   1.000  C
  C106     1.0000 0.33630  0.66370  0.59680  Biso   1.000  C
  C107     1.0000 0.19700  0.80300  0.15940  Biso   1.000  C
  C108     1.0000 0.22410  0.77590  0.22180  Biso   1.000  C
  C109     1.0000 0.16370  0.83630  0.09680  Biso   1.000  C
  C110     1.0000 0.69700  0.30300  0.65940  Biso   1.000  C
  C111     1.0000 0.72410  0.27590  0.72180  Biso   1.000  C
  C112     1.0000 0.66370  0.33630  0.59680  Biso   1.000  C
  C113     1.0000 0.30850  0.80850  0.75000  Biso   1.000  C
  H65      1.0000 0.35640  0.85640  0.75000  Biso   1.000  H
  C114     1.0000 0.69150  0.19150  0.75000  Biso   1.000  C
  H66      1.0000 0.64360  0.14360  0.75000  Biso   1.000  H
  C115     1.0000 0.19150  0.30850  0.75000  Biso   1.000  C
  H67      1.0000 0.14360  0.35640  0.75000  Biso   1.000  H
  C116     1.0000 0.80850  0.69150  0.75000  Biso   1.000  C
  H68      1.0000 0.85640  0.64360  0.75000  Biso   1.000  H
  C117     1.0000 0.30850  0.19150  0.25000  Biso   1.000  C
  H69      1.0000 0.35640  0.14360  0.25000  Biso   1.000  H
  C118     1.0000 0.69150  0.80850  0.25000  Biso   1.000  C
  H70      1.0000 0.64360  0.85640  0.25000  Biso   1.000  H
  C119     1.0000 0.80850  0.30850  0.25000  Biso   1.000  C
  H71      1.0000 0.85640  0.35640  0.25000  Biso   1.000  H
  C120     1.0000 0.19150  0.69150  0.25000  Biso   1.000  C
  H72      1.0000 0.14360  0.64360  0.25000  Biso   1.000  H
  C121     1.0000 0.69150  0.19150  0.25000  Biso   1.000  C
  H73      1.0000 0.64360  0.14360  0.25000  Biso   1.000  H
  C122     1.0000 0.30850  0.80850  0.25000  Biso   1.000  C
  H74      1.0000 0.35640  0.85640  0.25000  Biso   1.000  H
  C123     1.0000 0.80850  0.69150  0.25000  Biso   1.000  C
  H75      1.0000 0.85640  0.64360  0.25000  Biso   1.000  H
  C124     1.0000 0.19150  0.30850  0.25000  Biso   1.000  C
  H76      1.0000 0.14360  0.35640  0.25000  Biso   1.000  H
  C125     1.0000 0.30850  0.19150  0.75000  Biso   1.000  C
  H77      1.0000 0.35640  0.14360  0.75000  Biso   1.000  H
  C126     1.0000 0.69150  0.80850  0.75000  Biso   1.000  C
  H78      1.0000 0.64360  0.85640  0.75000  Biso   1.000  H
  C127     1.0000 0.19150  0.69150  0.75000  Biso   1.000  C
  H79      1.0000 0.14360  0.64360  0.75000  Biso   1.000  H
  C128     1.0000 0.80850  0.30850  0.75000  Biso   1.000  C
  H80      1.0000 0.85640  0.35640  0.75000  Biso   1.000  H
