data_image0
_cell_length_a       14.2066
_cell_length_b       14.2066
_cell_length_c       19.8137
_cell_angle_alpha    90
_cell_angle_beta     90
_cell_angle_gamma    90

_symmetry_space_group_name_H-M    "P 1"
_symmetry_int_tables_number       1

loop_
  _symmetry_equiv_pos_as_xyz
  'x, y, z'

loop_
  _atom_site_label
  _atom_site_occupancy
  _atom_site_fract_x
  _atom_site_fract_y
  _atom_site_fract_z
  _atom_site_thermal_displace_type
  _atom_site_B_iso_or_equiv
  _atom_site_type_symbol
  N1       1.0000 0.17310  0.10500  0.06810  Biso   1.000  N
  C1       1.0000 0.22710  0.11960  0.12200  Biso   1.000  C
  H1       1.0000 0.27890  0.08280  0.13330  Biso   1.000  H
  C2       1.0000 0.27090  0.15530  0.19220  Biso   1.000  C
  H2       1.0000 0.29690  0.10040  0.17470  Biso   1.000  H
  O1       1.0000 0.19870  0.08880  0.07420  Biso   1.000  O
  N2       1.0000 0.67310  0.60500  0.56810  Biso   1.000  N
  C3       1.0000 0.72710  0.61960  0.62200  Biso   1.000  C
  H3       1.0000 0.77890  0.58280  0.63330  Biso   1.000  H
  C4       1.0000 0.77090  0.65530  0.69220  Biso   1.000  C
  H4       1.0000 0.79690  0.60040  0.67470  Biso   1.000  H
  O2       1.0000 0.69870  0.58880  0.57420  Biso   1.000  O
  N3       1.0000 0.82690  0.89500  0.06810  Biso   1.000  N
  C5       1.0000 0.77290  0.88040  0.12200  Biso   1.000  C
  H5       1.0000 0.72110  0.91720  0.13330  Biso   1.000  H
  C6       1.0000 0.72910  0.84470  0.19220  Biso   1.000  C
  H6       1.0000 0.70310  0.89960  0.17470  Biso   1.000  H
  O3       1.0000 0.80130  0.91120  0.07420  Biso   1.000  O
  N4       1.0000 0.32690  0.39500  0.56810  Biso   1.000  N
  C7       1.0000 0.27290  0.38040  0.62200  Biso   1.000  C
  H7       1.0000 0.22110  0.41720  0.63330  Biso   1.000  H
  C8       1.0000 0.22910  0.34470  0.69220  Biso   1.000  C
  H8       1.0000 0.20310  0.39960  0.67470  Biso   1.000  H
  O4       1.0000 0.30130  0.41120  0.57420  Biso   1.000  O
  N5       1.0000 0.89500  0.17310  0.06810  Biso   1.000  N
  C9       1.0000 0.88040  0.22710  0.12200  Biso   1.000  C
  H9       1.0000 0.91720  0.27890  0.13330  Biso   1.000  H
  C10      1.0000 0.84470  0.27090  0.19220  Biso   1.000  C
  H10      1.0000 0.89960  0.29690  0.17470  Biso   1.000  H
  O5       1.0000 0.91120  0.19870  0.07420  Biso   1.000  O
  N6       1.0000 0.39500  0.67310  0.56810  Biso   1.000  N
  C11      1.0000 0.38040  0.72710  0.62200  Biso   1.000  C
  H11      1.0000 0.41720  0.77890  0.63330  Biso   1.000  H
  C12      1.0000 0.34470  0.77090  0.69220  Biso   1.000  C
  H12      1.0000 0.39960  0.79690  0.67470  Biso   1.000  H
  O6       1.0000 0.41120  0.69870  0.57420  Biso   1.000  O
  N7       1.0000 0.10500  0.82690  0.06810  Biso   1.000  N
  C13      1.0000 0.11960  0.77290  0.12200  Biso   1.000  C
  H13      1.0000 0.08280  0.72110  0.13330  Biso   1.000  H
  C14      1.0000 0.15530  0.72910  0.19220  Biso   1.000  C
  H14      1.0000 0.10040  0.70310  0.17470  Biso   1.000  H
  O7       1.0000 0.08880  0.80130  0.07420  Biso   1.000  O
  N8       1.0000 0.60500  0.32690  0.56810  Biso   1.000  N
  C15      1.0000 0.61960  0.27290  0.62200  Biso   1.000  C
  H15      1.0000 0.58280  0.22110  0.63330  Biso   1.000  H
  C16      1.0000 0.65530  0.22910  0.69220  Biso   1.000  C
  H16      1.0000 0.60040  0.20310  0.67470  Biso   1.000  H
  O8       1.0000 0.58880  0.30130  0.57420  Biso   1.000  O
  N9       1.0000 0.82690  0.10500  0.93190  Biso   1.000  N
  C17      1.0000 0.77290  0.11960  0.87800  Biso   1.000  C
  H17      1.0000 0.72110  0.08280  0.86670  Biso   1.000  H
  C18      1.0000 0.72910  0.15530  0.80780  Biso   1.000  C
  H18      1.0000 0.70310  0.10040  0.82530  Biso   1.000  H
  O9       1.0000 0.80130  0.08880  0.92580  Biso   1.000  O
  N10      1.0000 0.32690  0.60500  0.43190  Biso   1.000  N
  C19      1.0000 0.27290  0.61960  0.37800  Biso   1.000  C
  H19      1.0000 0.22110  0.58280  0.36670  Biso   1.000  H
  C20      1.0000 0.22910  0.65530  0.30780  Biso   1.000  C
  H20      1.0000 0.20310  0.60040  0.32530  Biso   1.000  H
  O10      1.0000 0.30130  0.58880  0.42580  Biso   1.000  O
  N11      1.0000 0.17310  0.89500  0.93190  Biso   1.000  N
  C21      1.0000 0.22710  0.88040  0.87800  Biso   1.000  C
  H21      1.0000 0.27890  0.91720  0.86670  Biso   1.000  H
  C22      1.0000 0.27090  0.84470  0.80780  Biso   1.000  C
  H22      1.0000 0.29690  0.89960  0.82530  Biso   1.000  H
  O11      1.0000 0.19870  0.91120  0.92580  Biso   1.000  O
  N12      1.0000 0.67310  0.39500  0.43190  Biso   1.000  N
  C23      1.0000 0.72710  0.38040  0.37800  Biso   1.000  C
  H23      1.0000 0.77890  0.41720  0.36670  Biso   1.000  H
  C24      1.0000 0.77090  0.34470  0.30780  Biso   1.000  C
  H24      1.0000 0.79690  0.39960  0.32530  Biso   1.000  H
  O12      1.0000 0.69870  0.41120  0.42580  Biso   1.000  O
  N13      1.0000 0.10500  0.17310  0.93190  Biso   1.000  N
  C25      1.0000 0.11960  0.22710  0.87800  Biso   1.000  C
  H25      1.0000 0.08280  0.27890  0.86670  Biso   1.000  H
  C26      1.0000 0.15530  0.27090  0.80780  Biso   1.000  C
  H26      1.0000 0.10040  0.29690  0.82530  Biso   1.000  H
  O13      1.0000 0.08880  0.19870  0.92580  Biso   1.000  O
  N14      1.0000 0.60500  0.67310  0.43190  Biso   1.000  N
  C27      1.0000 0.61960  0.72710  0.37800  Biso   1.000  C
  H27      1.0000 0.58280  0.77890  0.36670  Biso   1.000  H
  C28      1.0000 0.65530  0.77090  0.30780  Biso   1.000  C
  H28      1.0000 0.60040  0.79690  0.32530  Biso   1.000  H
  O14      1.0000 0.58880  0.69870  0.42580  Biso   1.000  O
  N15      1.0000 0.89500  0.82690  0.93190  Biso   1.000  N
  C29      1.0000 0.88040  0.77290  0.87800  Biso   1.000  C
  H29      1.0000 0.91720  0.72110  0.86670  Biso   1.000  H
  C30      1.0000 0.84470  0.72910  0.80780  Biso   1.000  C
  H30      1.0000 0.89960  0.70310  0.82530  Biso   1.000  H
  O15      1.0000 0.91120  0.80130  0.92580  Biso   1.000  O
  N16      1.0000 0.39500  0.32690  0.43190  Biso   1.000  N
  C31      1.0000 0.38040  0.27290  0.37800  Biso   1.000  C
  H31      1.0000 0.41720  0.22110  0.36670  Biso   1.000  H
  C32      1.0000 0.34470  0.22910  0.30780  Biso   1.000  C
  H32      1.0000 0.39960  0.20310  0.32530  Biso   1.000  H
  O16      1.0000 0.41120  0.30130  0.42580  Biso   1.000  O
  N17      1.0000 0.82690  0.89500  0.93190  Biso   1.000  N
  C33      1.0000 0.77290  0.88040  0.87800  Biso   1.000  C
  H33      1.0000 0.72110  0.91720  0.86670  Biso   1.000  H
  C34      1.0000 0.72910  0.84470  0.80780  Biso   1.000  C
  H34      1.0000 0.70310  0.89960  0.82530  Biso   1.000  H
  O17      1.0000 0.80130  0.91120  0.92580  Biso   1.000  O
  N18      1.0000 0.32690  0.39500  0.43190  Biso   1.000  N
  C35      1.0000 0.27290  0.38040  0.37800  Biso   1.000  C
  H35      1.0000 0.22110  0.41720  0.36670  Biso   1.000  H
  C36      1.0000 0.22910  0.34470  0.30780  Biso   1.000  C
  H36      1.0000 0.20310  0.39960  0.32530  Biso   1.000  H
  O18      1.0000 0.30130  0.41120  0.42580  Biso   1.000  O
  N19      1.0000 0.17310  0.10500  0.93190  Biso   1.000  N
  C37      1.0000 0.22710  0.11960  0.87800  Biso   1.000  C
  H37      1.0000 0.27890  0.08280  0.86670  Biso   1.000  H
  C38      1.0000 0.27090  0.15530  0.80780  Biso   1.000  C
  H38      1.0000 0.29690  0.10040  0.82530  Biso   1.000  H
  O19      1.0000 0.19870  0.08880  0.92580  Biso   1.000  O
  N20      1.0000 0.67310  0.60500  0.43190  Biso   1.000  N
  C39      1.0000 0.72710  0.61960  0.37800  Biso   1.000  C
  H39      1.0000 0.77890  0.58280  0.36670  Biso   1.000  H
  C40      1.0000 0.77090  0.65530  0.30780  Biso   1.000  C
  H40      1.0000 0.79690  0.60040  0.32530  Biso   1.000  H
  O20      1.0000 0.69870  0.58880  0.42580  Biso   1.000  O
  N21      1.0000 0.10500  0.82690  0.93190  Biso   1.000  N
  C41      1.0000 0.11960  0.77290  0.87800  Biso   1.000  C
  H41      1.0000 0.08280  0.72110  0.86670  Biso   1.000  H
  C42      1.0000 0.15530  0.72910  0.80780  Biso   1.000  C
  H42      1.0000 0.10040  0.70310  0.82530  Biso   1.000  H
  O21      1.0000 0.08880  0.80130  0.92580  Biso   1.000  O
  N22      1.0000 0.60500  0.32690  0.43190  Biso   1.000  N
  C43      1.0000 0.61960  0.27290  0.37800  Biso   1.000  C
  H43      1.0000 0.58280  0.22110  0.36670  Biso   1.000  H
  C44      1.0000 0.65530  0.22910  0.30780  Biso   1.000  C
  H44      1.0000 0.60040  0.20310  0.32530  Biso   1.000  H
  O22      1.0000 0.58880  0.30130  0.42580  Biso   1.000  O
  N23      1.0000 0.89500  0.17310  0.93190  Biso   1.000  N
  C45      1.0000 0.88040  0.22710  0.87800  Biso   1.000  C
  H45      1.0000 0.91720  0.27890  0.86670  Biso   1.000  H
  C46      1.0000 0.84470  0.27090  0.80780  Biso   1.000  C
  H46      1.0000 0.89960  0.29690  0.82530  Biso   1.000  H
  O23      1.0000 0.91120  0.19870  0.92580  Biso   1.000  O
  N24      1.0000 0.39500  0.67310  0.43190  Biso   1.000  N
  C47      1.0000 0.38040  0.72710  0.37800  Biso   1.000  C
  H47      1.0000 0.41720  0.77890  0.36670  Biso   1.000  H
  C48      1.0000 0.34470  0.77090  0.30780  Biso   1.000  C
  H48      1.0000 0.39960  0.79690  0.32530  Biso   1.000  H
  O24      1.0000 0.41120  0.69870  0.42580  Biso   1.000  O
  N25      1.0000 0.17310  0.89500  0.06810  Biso   1.000  N
  C49      1.0000 0.22710  0.88040  0.12200  Biso   1.000  C
  H49      1.0000 0.27890  0.91720  0.13330  Biso   1.000  H
  C50      1.0000 0.27090  0.84470  0.19220  Biso   1.000  C
  H50      1.0000 0.29690  0.89960  0.17470  Biso   1.000  H
  O25      1.0000 0.19870  0.91120  0.07420  Biso   1.000  O
  N26      1.0000 0.67310  0.39500  0.56810  Biso   1.000  N
  C51      1.0000 0.72710  0.38040  0.62200  Biso   1.000  C
  H51      1.0000 0.77890  0.41720  0.63330  Biso   1.000  H
  C52      1.0000 0.77090  0.34470  0.69220  Biso   1.000  C
  H52      1.0000 0.79690  0.39960  0.67470  Biso   1.000  H
  O26      1.0000 0.69870  0.41120  0.57420  Biso   1.000  O
  N27      1.0000 0.82690  0.10500  0.06810  Biso   1.000  N
  C53      1.0000 0.77290  0.11960  0.12200  Biso   1.000  C
  H53      1.0000 0.72110  0.08280  0.13330  Biso   1.000  H
  C54      1.0000 0.72910  0.15530  0.19220  Biso   1.000  C
  H54      1.0000 0.70310  0.10040  0.17470  Biso   1.000  H
  O27      1.0000 0.80130  0.08880  0.07420  Biso   1.000  O
  N28      1.0000 0.32690  0.60500  0.56810  Biso   1.000  N
  C55      1.0000 0.27290  0.61960  0.62200  Biso   1.000  C
  H55      1.0000 0.22110  0.58280  0.63330  Biso   1.000  H
  C56      1.0000 0.22910  0.65530  0.69220  Biso   1.000  C
  H56      1.0000 0.20310  0.60040  0.67470  Biso   1.000  H
  O28      1.0000 0.30130  0.58880  0.57420  Biso   1.000  O
  N29      1.0000 0.89500  0.82690  0.06810  Biso   1.000  N
  C57      1.0000 0.88040  0.77290  0.12200  Biso   1.000  C
  H57      1.0000 0.91720  0.72110  0.13330  Biso   1.000  H
  C58      1.0000 0.84470  0.72910  0.19220  Biso   1.000  C
  H58      1.0000 0.89960  0.70310  0.17470  Biso   1.000  H
  O29      1.0000 0.91120  0.80130  0.07420  Biso   1.000  O
  N30      1.0000 0.39500  0.32690  0.56810  Biso   1.000  N
  C59      1.0000 0.38040  0.27290  0.62200  Biso   1.000  C
  H59      1.0000 0.41720  0.22110  0.63330  Biso   1.000  H
  C60      1.0000 0.34470  0.22910  0.69220  Biso   1.000  C
  H60      1.0000 0.39960  0.20310  0.67470  Biso   1.000  H
  O30      1.0000 0.41120  0.30130  0.57420  Biso   1.000  O
  N31      1.0000 0.10500  0.17310  0.06810  Biso   1.000  N
  C61      1.0000 0.11960  0.22710  0.12200  Biso   1.000  C
  H61      1.0000 0.08280  0.27890  0.13330  Biso   1.000  H
  C62      1.0000 0.15530  0.27090  0.19220  Biso   1.000  C
  H62      1.0000 0.10040  0.29690  0.17470  Biso   1.000  H
  O31      1.0000 0.08880  0.19870  0.07420  Biso   1.000  O
  N32      1.0000 0.60500  0.67310  0.56810  Biso   1.000  N
  C63      1.0000 0.61960  0.72710  0.62200  Biso   1.000  C
  H63      1.0000 0.58280  0.77890  0.63330  Biso   1.000  H
  C64      1.0000 0.65530  0.77090  0.69220  Biso   1.000  C
  H64      1.0000 0.60040  0.79690  0.67470  Biso   1.000  H
  O32      1.0000 0.58880  0.69870  0.57420  Biso   1.000  O
  Cu1      1.0000 0.17997  0.00000  0.00000  Biso   1.000  Cu
  Cu2      1.0000 0.67997  0.50000  0.50000  Biso   1.000  Cu
  Cu3      1.0000 0.82003  0.00000  0.00000  Biso   1.000  Cu
  Cu4      1.0000 0.32003  0.50000  0.50000  Biso   1.000  Cu
  Cu5      1.0000 0.00000  0.17997  0.00000  Biso   1.000  Cu
  Cu6      1.0000 0.50000  0.67997  0.50000  Biso   1.000  Cu
  Cu7      1.0000 0.00000  0.82003  0.00000  Biso   1.000  Cu
  Cu8      1.0000 0.50000  0.32003  0.50000  Biso   1.000  Cu
  Cl1      1.0000 0.00000  0.00000  0.00000  Biso   1.000  Cl
  Cl2      1.0000 0.50000  0.50000  0.50000  Biso   1.000  Cl
  C65      1.0000 0.19660  0.19660  0.15930  Biso   1.000  C
  C66      1.0000 0.23360  0.23360  0.21860  Biso   1.000  C
  C67      1.0000 0.15800  0.15800  0.09780  Biso   1.000  C
  C68      1.0000 0.69660  0.69660  0.65930  Biso   1.000  C
  C69      1.0000 0.73360  0.73360  0.71860  Biso   1.000  C
  C70      1.0000 0.65800  0.65800  0.59780  Biso   1.000  C
  C71      1.0000 0.80340  0.80340  0.15930  Biso   1.000  C
  C72      1.0000 0.76640  0.76640  0.21860  Biso   1.000  C
  C73      1.0000 0.84200  0.84200  0.09780  Biso   1.000  C
  C74      1.0000 0.30340  0.30340  0.65930  Biso   1.000  C
  C75      1.0000 0.26640  0.26640  0.71860  Biso   1.000  C
  C76      1.0000 0.34200  0.34200  0.59780  Biso   1.000  C
  C77      1.0000 0.80340  0.19660  0.15930  Biso   1.000  C
  C78      1.0000 0.76640  0.23360  0.21860  Biso   1.000  C
  C79      1.0000 0.84200  0.15800  0.09780  Biso   1.000  C
  C80      1.0000 0.30340  0.69660  0.65930  Biso   1.000  C
  C81      1.0000 0.26640  0.73360  0.71860  Biso   1.000  C
  C82      1.0000 0.34200  0.65800  0.59780  Biso   1.000  C
  C83      1.0000 0.19660  0.80340  0.15930  Biso   1.000  C
  C84      1.0000 0.23360  0.76640  0.21860  Biso   1.000  C
  C85      1.0000 0.15800  0.84200  0.09780  Biso   1.000  C
  C86      1.0000 0.69660  0.30340  0.65930  Biso   1.000  C
  C87      1.0000 0.73360  0.26640  0.71860  Biso   1.000  C
  C88      1.0000 0.65800  0.34200  0.59780  Biso   1.000  C
  C89      1.0000 0.80340  0.19660  0.84070  Biso   1.000  C
  C90      1.0000 0.76640  0.23360  0.78140  Biso   1.000  C
  C91      1.0000 0.84200  0.15800  0.90220  Biso   1.000  C
  C92      1.0000 0.30340  0.69660  0.34070  Biso   1.000  C
  C93      1.0000 0.26640  0.73360  0.28140  Biso   1.000  C
  C94      1.0000 0.34200  0.65800  0.40220  Biso   1.000  C
  C95      1.0000 0.19660  0.80340  0.84070  Biso   1.000  C
  C96      1.0000 0.23360  0.76640  0.78140  Biso   1.000  C
  C97      1.0000 0.15800  0.84200  0.90220  Biso   1.000  C
  C98      1.0000 0.69660  0.30340  0.34070  Biso   1.000  C
  C99      1.0000 0.73360  0.26640  0.28140  Biso   1.000  C
  C100     1.0000 0.65800  0.34200  0.40220  Biso   1.000  C
  C101     1.0000 0.19660  0.19660  0.84070  Biso   1.000  C
  C102     1.0000 0.23360  0.23360  0.78140  Biso   1.000  C
  C103     1.0000 0.15800  0.15800  0.90220  Biso   1.000  C
  C104     1.0000 0.69660  0.69660  0.34070  Biso   1.000  C
  C105     1.0000 0.73360  0.73360  0.28140  Biso   1.000  C
  C106     1.0000 0.65800  0.65800  0.40220  Biso   1.000  C
  C107     1.0000 0.80340  0.80340  0.84070  Biso   1.000  C
  C108     1.0000 0.76640  0.76640  0.78140  Biso   1.000  C
  C109     1.0000 0.84200  0.84200  0.90220  Biso   1.000  C
  C110     1.0000 0.30340  0.30340  0.34070  Biso   1.000  C
  C111     1.0000 0.26640  0.26640  0.28140  Biso   1.000  C
  C112     1.0000 0.34200  0.34200  0.40220  Biso   1.000  C
  C113     1.0000 0.30740  0.19260  0.25000  Biso   1.000  C
  H65      1.0000 0.35370  0.14630  0.25000  Biso   1.000  H
  C114     1.0000 0.69260  0.80740  0.25000  Biso   1.000  C
  H66      1.0000 0.64630  0.85370  0.25000  Biso   1.000  H
  C115     1.0000 0.80740  0.30740  0.25000  Biso   1.000  C
  H67      1.0000 0.85370  0.35370  0.25000  Biso   1.000  H
  C116     1.0000 0.19260  0.69260  0.25000  Biso   1.000  C
  H68      1.0000 0.14630  0.64630  0.25000  Biso   1.000  H
  C117     1.0000 0.69260  0.19260  0.75000  Biso   1.000  C
  H69      1.0000 0.64630  0.14630  0.75000  Biso   1.000  H
  C118     1.0000 0.30740  0.80740  0.75000  Biso   1.000  C
  H70      1.0000 0.35370  0.85370  0.75000  Biso   1.000  H
  C119     1.0000 0.19260  0.30740  0.75000  Biso   1.000  C
  H71      1.0000 0.14630  0.35370  0.75000  Biso   1.000  H
  C120     1.0000 0.80740  0.69260  0.75000  Biso   1.000  C
  H72      1.0000 0.85370  0.64630  0.75000  Biso   1.000  H
  C121     1.0000 0.69260  0.80740  0.75000  Biso   1.000  C
  H73      1.0000 0.64630  0.85370  0.75000  Biso   1.000  H
  C122     1.0000 0.19260  0.30740  0.25000  Biso   1.000  C
  H74      1.0000 0.14630  0.35370  0.25000  Biso   1.000  H
  C123     1.0000 0.30740  0.19260  0.75000  Biso   1.000  C
  H75      1.0000 0.35370  0.14630  0.75000  Biso   1.000  H
  C124     1.0000 0.19260  0.69260  0.75000  Biso   1.000  C
  H76      1.0000 0.14630  0.64630  0.75000  Biso   1.000  H
  C125     1.0000 0.80740  0.30740  0.75000  Biso   1.000  C
  H77      1.0000 0.85370  0.35370  0.75000  Biso   1.000  H
  C126     1.0000 0.30740  0.80740  0.25000  Biso   1.000  C
  H78      1.0000 0.35370  0.85370  0.25000  Biso   1.000  H
  C127     1.0000 0.69260  0.19260  0.25000  Biso   1.000  C
  H79      1.0000 0.64630  0.14630  0.25000  Biso   1.000  H
  C128     1.0000 0.80740  0.69260  0.25000  Biso   1.000  C
  H80      1.0000 0.85370  0.64630  0.25000  Biso   1.000  H
