data_image0
_cell_length_a       22.604
_cell_length_b       22.604
_cell_length_c       7.454
_cell_angle_alpha    90
_cell_angle_beta     90
_cell_angle_gamma    120

_symmetry_space_group_name_H-M    "P 1"
_symmetry_int_tables_number       1

loop_
  _symmetry_equiv_pos_as_xyz
  'x, y, z'

loop_
  _atom_site_label
  _atom_site_occupancy
  _atom_site_fract_x
  _atom_site_fract_y
  _atom_site_fract_z
  _atom_site_thermal_displace_type
  _atom_site_B_iso_or_equiv
  _atom_site_type_symbol
  C1       1.0000 0.48850  0.44680  0.88680  Biso   1.000  C
  H1       1.0000 0.48030  0.40990  0.80790  Biso   1.000  H
  C2       1.0000 0.54570  0.51690  0.14020  Biso   1.000  C
  H2       1.0000 0.57650  0.52810  0.23950  Biso   1.000  H
  C3       1.0000 0.15517  0.78013  0.22013  Biso   1.000  C
  H3       1.0000 0.14697  0.74323  0.14123  Biso   1.000  H
  C4       1.0000 0.21237  0.85023  0.47353  Biso   1.000  C
  H4       1.0000 0.24317  0.86143  0.57283  Biso   1.000  H
  C5       1.0000 0.82183  0.11347  0.55347  Biso   1.000  C
  H5       1.0000 0.81363  0.07657  0.47457  Biso   1.000  H
  C6       1.0000 0.87903  0.18357  0.80687  Biso   1.000  C
  H6       1.0000 0.90983  0.19477  0.90617  Biso   1.000  H
  C7       1.0000 0.55320  0.04170  0.88680  Biso   1.000  C
  H7       1.0000 0.59010  0.07040  0.80790  Biso   1.000  H
  C8       1.0000 0.48310  0.02880  0.14020  Biso   1.000  C
  H8       1.0000 0.47190  0.04840  0.23950  Biso   1.000  H
  C9       1.0000 0.21987  0.37503  0.22013  Biso   1.000  C
  H9       1.0000 0.25677  0.40373  0.14123  Biso   1.000  H
  C10      1.0000 0.14977  0.36213  0.47353  Biso   1.000  C
  H10      1.0000 0.13857  0.38173  0.57283  Biso   1.000  H
  C11      1.0000 0.88653  0.70837  0.55347  Biso   1.000  C
  H11      1.0000 0.92343  0.73707  0.47457  Biso   1.000  H
  C12      1.0000 0.81643  0.69547  0.80687  Biso   1.000  C
  H12      1.0000 0.80523  0.71507  0.90617  Biso   1.000  H
  C13      1.0000 0.95830  0.51150  0.88680  Biso   1.000  C
  H13      1.0000 0.92960  0.51970  0.80790  Biso   1.000  H
  C14      1.0000 0.97120  0.45430  0.14020  Biso   1.000  C
  H14      1.0000 0.95160  0.42350  0.23950  Biso   1.000  H
  C15      1.0000 0.62497  0.84483  0.22013  Biso   1.000  C
  H15      1.0000 0.59627  0.85303  0.14123  Biso   1.000  H
  C16      1.0000 0.63787  0.78763  0.47353  Biso   1.000  C
  H16      1.0000 0.61827  0.75683  0.57283  Biso   1.000  H
  C17      1.0000 0.29163  0.17817  0.55347  Biso   1.000  C
  H17      1.0000 0.26293  0.18637  0.47457  Biso   1.000  H
  C18      1.0000 0.30453  0.12097  0.80687  Biso   1.000  C
  H18      1.0000 0.28493  0.09017  0.90617  Biso   1.000  H
  C19      1.0000 0.44680  0.48850  0.11320  Biso   1.000  C
  H19      1.0000 0.40990  0.48030  0.19210  Biso   1.000  H
  C20      1.0000 0.51690  0.54570  0.85980  Biso   1.000  C
  H20      1.0000 0.52810  0.57650  0.76050  Biso   1.000  H
  C21      1.0000 0.11347  0.82183  0.44653  Biso   1.000  C
  H21      1.0000 0.07657  0.81363  0.52543  Biso   1.000  H
  C22      1.0000 0.18357  0.87903  0.19313  Biso   1.000  C
  H22      1.0000 0.19477  0.90983  0.09383  Biso   1.000  H
  C23      1.0000 0.78013  0.15517  0.77987  Biso   1.000  C
  H23      1.0000 0.74323  0.14697  0.85877  Biso   1.000  H
  C24      1.0000 0.85023  0.21237  0.52647  Biso   1.000  C
  H24      1.0000 0.86143  0.24317  0.42717  Biso   1.000  H
  C25      1.0000 0.04170  0.55320  0.11320  Biso   1.000  C
  H25      1.0000 0.07040  0.59010  0.19210  Biso   1.000  H
  C26      1.0000 0.02880  0.48310  0.85980  Biso   1.000  C
  H26      1.0000 0.04840  0.47190  0.76050  Biso   1.000  H
  C27      1.0000 0.70837  0.88653  0.44653  Biso   1.000  C
  H27      1.0000 0.73707  0.92343  0.52543  Biso   1.000  H
  C28      1.0000 0.69547  0.81643  0.19313  Biso   1.000  C
  H28      1.0000 0.71507  0.80523  0.09383  Biso   1.000  H
  C29      1.0000 0.37503  0.21987  0.77987  Biso   1.000  C
  H29      1.0000 0.40373  0.25677  0.85877  Biso   1.000  H
  C30      1.0000 0.36213  0.14977  0.52647  Biso   1.000  C
  H30      1.0000 0.38173  0.13857  0.42717  Biso   1.000  H
  C31      1.0000 0.51150  0.95830  0.11320  Biso   1.000  C
  H31      1.0000 0.51970  0.92960  0.19210  Biso   1.000  H
  C32      1.0000 0.45430  0.97120  0.85980  Biso   1.000  C
  H32      1.0000 0.42350  0.95160  0.76050  Biso   1.000  H
  C33      1.0000 0.17817  0.29163  0.44653  Biso   1.000  C
  H33      1.0000 0.18637  0.26293  0.52543  Biso   1.000  H
  C34      1.0000 0.12097  0.30453  0.19313  Biso   1.000  C
  H34      1.0000 0.09017  0.28493  0.09383  Biso   1.000  H
  C35      1.0000 0.84483  0.62497  0.77987  Biso   1.000  C
  H35      1.0000 0.85303  0.59627  0.85877  Biso   1.000  H
  C36      1.0000 0.78763  0.63787  0.52647  Biso   1.000  C
  H36      1.0000 0.75683  0.61827  0.42717  Biso   1.000  H
  C37      1.0000 0.51150  0.55320  0.11320  Biso   1.000  C
  H37      1.0000 0.51970  0.59010  0.19210  Biso   1.000  H
  C38      1.0000 0.45430  0.48310  0.85980  Biso   1.000  C
  H38      1.0000 0.42350  0.47190  0.76050  Biso   1.000  H
  C39      1.0000 0.17817  0.88653  0.44653  Biso   1.000  C
  H39      1.0000 0.18637  0.92343  0.52543  Biso   1.000  H
  C40      1.0000 0.12097  0.81643  0.19313  Biso   1.000  C
  H40      1.0000 0.09017  0.80523  0.09383  Biso   1.000  H
  C41      1.0000 0.84483  0.21987  0.77987  Biso   1.000  C
  H41      1.0000 0.85303  0.25677  0.85877  Biso   1.000  H
  C42      1.0000 0.78763  0.14977  0.52647  Biso   1.000  C
  H42      1.0000 0.75683  0.13857  0.42717  Biso   1.000  H
  C43      1.0000 0.44680  0.95830  0.11320  Biso   1.000  C
  H43      1.0000 0.40990  0.92960  0.19210  Biso   1.000  H
  C44      1.0000 0.51690  0.97120  0.85980  Biso   1.000  C
  H44      1.0000 0.52810  0.95160  0.76050  Biso   1.000  H
  C45      1.0000 0.11347  0.29163  0.44653  Biso   1.000  C
  H45      1.0000 0.07657  0.26293  0.52543  Biso   1.000  H
  C46      1.0000 0.18357  0.30453  0.19313  Biso   1.000  C
  H46      1.0000 0.19477  0.28493  0.09383  Biso   1.000  H
  C47      1.0000 0.78013  0.62497  0.77987  Biso   1.000  C
  H47      1.0000 0.74323  0.59627  0.85877  Biso   1.000  H
  C48      1.0000 0.85023  0.63787  0.52647  Biso   1.000  C
  H48      1.0000 0.86143  0.61827  0.42717  Biso   1.000  H
  C49      1.0000 0.04170  0.48850  0.11320  Biso   1.000  C
  H49      1.0000 0.07040  0.48030  0.19210  Biso   1.000  H
  C50      1.0000 0.02880  0.54570  0.85980  Biso   1.000  C
  H50      1.0000 0.04840  0.57650  0.76050  Biso   1.000  H
  C51      1.0000 0.70837  0.82183  0.44653  Biso   1.000  C
  H51      1.0000 0.73707  0.81363  0.52543  Biso   1.000  H
  C52      1.0000 0.69547  0.87903  0.19313  Biso   1.000  C
  H52      1.0000 0.71507  0.90983  0.09383  Biso   1.000  H
  C53      1.0000 0.37503  0.15517  0.77987  Biso   1.000  C
  H53      1.0000 0.40373  0.14697  0.85877  Biso   1.000  H
  C54      1.0000 0.36213  0.21237  0.52647  Biso   1.000  C
  H54      1.0000 0.38173  0.24317  0.42717  Biso   1.000  H
  C55      1.0000 0.55320  0.51150  0.88680  Biso   1.000  C
  H55      1.0000 0.59010  0.51970  0.80790  Biso   1.000  H
  C56      1.0000 0.48310  0.45430  0.14020  Biso   1.000  C
  H56      1.0000 0.47190  0.42350  0.23950  Biso   1.000  H
  C57      1.0000 0.21987  0.84483  0.22013  Biso   1.000  C
  H57      1.0000 0.25677  0.85303  0.14123  Biso   1.000  H
  C58      1.0000 0.14977  0.78763  0.47353  Biso   1.000  C
  H58      1.0000 0.13857  0.75683  0.57283  Biso   1.000  H
  C59      1.0000 0.88653  0.17817  0.55347  Biso   1.000  C
  H59      1.0000 0.92343  0.18637  0.47457  Biso   1.000  H
  C60      1.0000 0.81643  0.12097  0.80687  Biso   1.000  C
  H60      1.0000 0.80523  0.09017  0.90617  Biso   1.000  H
  C61      1.0000 0.95830  0.44680  0.88680  Biso   1.000  C
  H61      1.0000 0.92960  0.40990  0.80790  Biso   1.000  H
  C62      1.0000 0.97120  0.51690  0.14020  Biso   1.000  C
  H62      1.0000 0.95160  0.52810  0.23950  Biso   1.000  H
  C63      1.0000 0.62497  0.78013  0.22013  Biso   1.000  C
  H63      1.0000 0.59627  0.74323  0.14123  Biso   1.000  H
  C64      1.0000 0.63787  0.85023  0.47353  Biso   1.000  C
  H64      1.0000 0.61827  0.86143  0.57283  Biso   1.000  H
  C65      1.0000 0.29163  0.11347  0.55347  Biso   1.000  C
  H65      1.0000 0.26293  0.07657  0.47457  Biso   1.000  H
  C66      1.0000 0.30453  0.18357  0.80687  Biso   1.000  C
  H66      1.0000 0.28493  0.19477  0.90617  Biso   1.000  H
  C67      1.0000 0.48850  0.04170  0.88680  Biso   1.000  C
  H67      1.0000 0.48030  0.07040  0.80790  Biso   1.000  H
  C68      1.0000 0.54570  0.02880  0.14020  Biso   1.000  C
  H68      1.0000 0.57650  0.04840  0.23950  Biso   1.000  H
  C69      1.0000 0.15517  0.37503  0.22013  Biso   1.000  C
  H69      1.0000 0.14697  0.40373  0.14123  Biso   1.000  H
  C70      1.0000 0.21237  0.36213  0.47353  Biso   1.000  C
  H70      1.0000 0.24317  0.38173  0.57283  Biso   1.000  H
  C71      1.0000 0.82183  0.70837  0.55347  Biso   1.000  C
  H71      1.0000 0.81363  0.73707  0.47457  Biso   1.000  H
  C72      1.0000 0.87903  0.69547  0.80687  Biso   1.000  C
  H72      1.0000 0.90983  0.71507  0.90617  Biso   1.000  H
  Fe1      1.0000 0.66667  0.33333  0.83333  Biso   1.000  Fe
  Fe2      1.0000 0.00000  0.00000  0.50000  Biso   1.000  Fe
  Fe3      1.0000 0.33333  0.66667  0.16667  Biso   1.000  Fe
  Fe4      1.0000 0.66667  0.33333  0.33333  Biso   1.000  Fe
  Fe5      1.0000 0.33333  0.66667  0.66667  Biso   1.000  Fe
  Fe6      1.0000 0.00000  0.00000  0.00000  Biso   1.000  Fe
  N1       1.0000 0.58948  0.41052  0.20170  Biso   1.000  N
  H73      1.0000 0.58050  0.41950  0.31290  Biso   1.000  H
  N2       1.0000 0.62264  0.37736  0.15640  Biso   1.000  N
  N3       1.0000 0.62496  0.37504  0.97960  Biso   1.000  N
  N4       1.0000 0.59399  0.40601  0.90630  Biso   1.000  N
  C73      1.0000 0.57282  0.42717  0.04660  Biso   1.000  C
  C74      1.0000 0.53519  0.46482  0.02470  Biso   1.000  C
  N5       1.0000 0.25615  0.74385  0.53503  Biso   1.000  N
  H74      1.0000 0.24717  0.75283  0.64623  Biso   1.000  H
  N6       1.0000 0.28931  0.71069  0.48973  Biso   1.000  N
  N7       1.0000 0.29163  0.70837  0.31293  Biso   1.000  N
  N8       1.0000 0.26065  0.73935  0.23963  Biso   1.000  N
  C75      1.0000 0.23949  0.76051  0.37993  Biso   1.000  C
  C76      1.0000 0.20185  0.79815  0.35803  Biso   1.000  C
  N9       1.0000 0.92282  0.07718  0.86837  Biso   1.000  N
  H75      1.0000 0.91383  0.08617  0.97957  Biso   1.000  H
  N10      1.0000 0.95597  0.04403  0.82307  Biso   1.000  N
  N11      1.0000 0.95829  0.04171  0.64627  Biso   1.000  N
  N12      1.0000 0.92732  0.07268  0.57297  Biso   1.000  N
  C77      1.0000 0.90616  0.09384  0.71327  Biso   1.000  C
  C78      1.0000 0.86852  0.13148  0.69137  Biso   1.000  C
  N13      1.0000 0.58948  0.17897  0.20170  Biso   1.000  N
  H76      1.0000 0.58050  0.16100  0.31290  Biso   1.000  H
  N14      1.0000 0.62264  0.24528  0.15640  Biso   1.000  N
  N15      1.0000 0.62496  0.24992  0.97960  Biso   1.000  N
  N16      1.0000 0.59399  0.18797  0.90630  Biso   1.000  N
  C79      1.0000 0.57282  0.14565  0.04660  Biso   1.000  C
  C80      1.0000 0.53519  0.07037  0.02470  Biso   1.000  C
  N17      1.0000 0.25615  0.51230  0.53503  Biso   1.000  N
  H77      1.0000 0.24717  0.49433  0.64623  Biso   1.000  H
  N18      1.0000 0.28931  0.57861  0.48973  Biso   1.000  N
  N19      1.0000 0.29163  0.58325  0.31293  Biso   1.000  N
  N20      1.0000 0.26065  0.52130  0.23963  Biso   1.000  N
  C81      1.0000 0.23949  0.47898  0.37993  Biso   1.000  C
  C82      1.0000 0.20185  0.40370  0.35803  Biso   1.000  C
  N21      1.0000 0.92282  0.84564  0.86837  Biso   1.000  N
  H78      1.0000 0.91383  0.82767  0.97957  Biso   1.000  H
  N22      1.0000 0.95597  0.91195  0.82307  Biso   1.000  N
  N23      1.0000 0.95829  0.91659  0.64627  Biso   1.000  N
  N24      1.0000 0.92732  0.85464  0.57297  Biso   1.000  N
  C83      1.0000 0.90616  0.81232  0.71327  Biso   1.000  C
  C84      1.0000 0.86852  0.73704  0.69137  Biso   1.000  C
  N25      1.0000 0.82103  0.41052  0.20170  Biso   1.000  N
  H79      1.0000 0.83900  0.41950  0.31290  Biso   1.000  H
  N26      1.0000 0.75472  0.37736  0.15640  Biso   1.000  N
  N27      1.0000 0.75008  0.37504  0.97960  Biso   1.000  N
  N28      1.0000 0.81203  0.40602  0.90630  Biso   1.000  N
  C85      1.0000 0.85435  0.42718  0.04660  Biso   1.000  C
  C86      1.0000 0.92963  0.46481  0.02470  Biso   1.000  C
  N29      1.0000 0.48770  0.74385  0.53503  Biso   1.000  N
  H80      1.0000 0.50567  0.75283  0.64623  Biso   1.000  H
  N30      1.0000 0.42139  0.71069  0.48973  Biso   1.000  N
  N31      1.0000 0.41675  0.70837  0.31293  Biso   1.000  N
  N32      1.0000 0.47870  0.73935  0.23963  Biso   1.000  N
  C87      1.0000 0.52102  0.76051  0.37993  Biso   1.000  C
  C88      1.0000 0.59630  0.79815  0.35803  Biso   1.000  C
  N33      1.0000 0.15436  0.07718  0.86837  Biso   1.000  N
  H81      1.0000 0.17233  0.08617  0.97957  Biso   1.000  H
  N34      1.0000 0.08805  0.04403  0.82307  Biso   1.000  N
  N35      1.0000 0.08341  0.04171  0.64627  Biso   1.000  N
  N36      1.0000 0.14536  0.07268  0.57297  Biso   1.000  N
  C89      1.0000 0.18768  0.09384  0.71327  Biso   1.000  C
  C90      1.0000 0.26296  0.13148  0.69137  Biso   1.000  C
  N37      1.0000 0.41052  0.58948  0.79830  Biso   1.000  N
  H82      1.0000 0.41950  0.58050  0.68710  Biso   1.000  H
  N38      1.0000 0.37736  0.62264  0.84360  Biso   1.000  N
  N39      1.0000 0.37504  0.62496  0.02040  Biso   1.000  N
  N40      1.0000 0.40601  0.59398  0.09370  Biso   1.000  N
  C91      1.0000 0.42718  0.57282  0.95340  Biso   1.000  C
  C92      1.0000 0.46481  0.53518  0.97530  Biso   1.000  C
  N41      1.0000 0.07718  0.92282  0.13163  Biso   1.000  N
  H83      1.0000 0.08617  0.91383  0.02043  Biso   1.000  H
  N42      1.0000 0.04403  0.95597  0.17693  Biso   1.000  N
  N43      1.0000 0.04171  0.95829  0.35373  Biso   1.000  N
  N44      1.0000 0.07268  0.92732  0.42703  Biso   1.000  N
  C93      1.0000 0.09384  0.90616  0.28673  Biso   1.000  C
  C94      1.0000 0.13148  0.86852  0.30863  Biso   1.000  C
  N45      1.0000 0.74385  0.25615  0.46497  Biso   1.000  N
  H84      1.0000 0.75283  0.24717  0.35377  Biso   1.000  H
  N46      1.0000 0.71069  0.28931  0.51027  Biso   1.000  N
  N47      1.0000 0.70837  0.29163  0.68707  Biso   1.000  N
  N48      1.0000 0.73935  0.26065  0.76037  Biso   1.000  N
  C95      1.0000 0.76051  0.23949  0.62007  Biso   1.000  C
  C96      1.0000 0.79815  0.20185  0.64197  Biso   1.000  C
  N49      1.0000 0.17897  0.58948  0.79830  Biso   1.000  N
  H85      1.0000 0.16100  0.58050  0.68710  Biso   1.000  H
  N50      1.0000 0.24528  0.62264  0.84360  Biso   1.000  N
  N51      1.0000 0.24992  0.62496  0.02040  Biso   1.000  N
  N52      1.0000 0.18797  0.59398  0.09370  Biso   1.000  N
  C97      1.0000 0.14565  0.57282  0.95340  Biso   1.000  C
  C98      1.0000 0.07037  0.53518  0.97530  Biso   1.000  C
  N53      1.0000 0.84564  0.92282  0.13163  Biso   1.000  N
  H86      1.0000 0.82767  0.91383  0.02043  Biso   1.000  H
  N54      1.0000 0.91195  0.95597  0.17693  Biso   1.000  N
  N55      1.0000 0.91659  0.95829  0.35373  Biso   1.000  N
  N56      1.0000 0.85464  0.92732  0.42703  Biso   1.000  N
  C99      1.0000 0.81232  0.90616  0.28673  Biso   1.000  C
  C100     1.0000 0.73704  0.86852  0.30863  Biso   1.000  C
  N57      1.0000 0.51230  0.25615  0.46497  Biso   1.000  N
  H87      1.0000 0.49433  0.24717  0.35377  Biso   1.000  H
  N58      1.0000 0.57861  0.28931  0.51027  Biso   1.000  N
  N59      1.0000 0.58325  0.29163  0.68707  Biso   1.000  N
  N60      1.0000 0.52130  0.26065  0.76037  Biso   1.000  N
  C101     1.0000 0.47898  0.23949  0.62007  Biso   1.000  C
  C102     1.0000 0.40370  0.20185  0.64197  Biso   1.000  C
  N61      1.0000 0.41052  0.82103  0.79830  Biso   1.000  N
  H88      1.0000 0.41950  0.83900  0.68710  Biso   1.000  H
  N62      1.0000 0.37736  0.75472  0.84360  Biso   1.000  N
  N63      1.0000 0.37504  0.75008  0.02040  Biso   1.000  N
  N64      1.0000 0.40601  0.81203  0.09370  Biso   1.000  N
  C103     1.0000 0.42718  0.85435  0.95340  Biso   1.000  C
  C104     1.0000 0.46481  0.92963  0.97530  Biso   1.000  C
  N65      1.0000 0.07718  0.15436  0.13163  Biso   1.000  N
  H89      1.0000 0.08617  0.17233  0.02043  Biso   1.000  H
  N66      1.0000 0.04403  0.08805  0.17693  Biso   1.000  N
  N67      1.0000 0.04171  0.08341  0.35373  Biso   1.000  N
  N68      1.0000 0.07268  0.14536  0.42703  Biso   1.000  N
  C105     1.0000 0.09384  0.18768  0.28673  Biso   1.000  C
  C106     1.0000 0.13148  0.26296  0.30863  Biso   1.000  C
  N69      1.0000 0.74385  0.48770  0.46497  Biso   1.000  N
  H90      1.0000 0.75283  0.50567  0.35377  Biso   1.000  H
  N70      1.0000 0.71069  0.42139  0.51027  Biso   1.000  N
  N71      1.0000 0.70837  0.41675  0.68707  Biso   1.000  N
  N72      1.0000 0.73935  0.47870  0.76037  Biso   1.000  N
  C107     1.0000 0.76051  0.52102  0.62007  Biso   1.000  C
  C108     1.0000 0.79815  0.59630  0.64197  Biso   1.000  C
