data_image0
_cell_length_a       17.2841
_cell_length_b       17.2841
_cell_length_c       20.9702
_cell_angle_alpha    90
_cell_angle_beta     90
_cell_angle_gamma    90

_symmetry_space_group_name_H-M    "P 1"
_symmetry_int_tables_number       1

loop_
  _symmetry_equiv_pos_as_xyz
  'x, y, z'

loop_
  _atom_site_label
  _atom_site_occupancy
  _atom_site_fract_x
  _atom_site_fract_y
  _atom_site_fract_z
  _atom_site_thermal_displace_type
  _atom_site_B_iso_or_equiv
  _atom_site_type_symbol
  Cd1      1.0000 0.19721  0.75560  0.00234  Biso   1.000  Cd
  N1       1.0000 0.79120  0.63180  0.94370  Biso   1.000  N
  N2       1.0000 0.65550  0.30980  0.77420  Biso   1.000  N
  N3       1.0000 0.13720  0.17010  0.08540  Biso   1.000  N
  N4       1.0000 0.83000  0.38160  0.21880  Biso   1.000  N
  O1       1.0000 0.80170  0.69820  0.84950  Biso   1.000  O
  O2       1.0000 0.79730  0.55870  0.03080  Biso   1.000  O
  O3       1.0000 0.66030  0.23770  0.86480  Biso   1.000  O
  O4       1.0000 0.64430  0.38200  0.68550  Biso   1.000  O
  O5       1.0000 0.07330  0.15880  0.99410  Biso   1.000  O
  O6       1.0000 0.20100  0.17720  0.17950  Biso   1.000  O
  O7       1.0000 0.75870  0.36640  0.12790  Biso   1.000  O
  O8       1.0000 0.90230  0.40420  0.30490  Biso   1.000  O
  C1       1.0000 0.90560  0.70730  0.98270  Biso   1.000  C
  C2       1.0000 0.94190  0.76100  0.02690  Biso   1.000  C
  H1       1.0000 0.91010  0.78640  0.05590  Biso   1.000  H
  C3       1.0000 0.01690  0.77620  0.02880  Biso   1.000  C
  H2       1.0000 0.03590  0.81480  0.05550  Biso   1.000  H
  N5       1.0000 0.06540  0.73500  0.99150  Biso   1.000  N
  C4       1.0000 0.03940  0.68490  0.95710  Biso   1.000  C
  H3       1.0000 0.07550  0.65510  0.93530  Biso   1.000  H
  C5       1.0000 0.95700  0.66580  0.94600  Biso   1.000  C
  H4       1.0000 0.94120  0.62880  0.91650  Biso   1.000  H
  C6       1.0000 0.81790  0.69930  0.97870  Biso   1.000  C
  H5       1.0000 0.79720  0.69710  0.02160  Biso   1.000  H
  H6       1.0000 0.79720  0.74530  0.95840  Biso   1.000  H
  C7       1.0000 0.78530  0.63870  0.87790  Biso   1.000  C
  C8       1.0000 0.75660  0.56970  0.84150  Biso   1.000  C
  C9       1.0000 0.74330  0.57220  0.77520  Biso   1.000  C
  H7       1.0000 0.75300  0.61800  0.75340  Biso   1.000  H
  C10      1.0000 0.71720  0.51130  0.74240  Biso   1.000  C
  H8       1.0000 0.71030  0.51420  0.69850  Biso   1.000  H
  C11      1.0000 0.70050  0.44330  0.77560  Biso   1.000  C
  C12      1.0000 0.66470  0.37580  0.74130  Biso   1.000  C
  C13      1.0000 0.67170  0.29980  0.83550  Biso   1.000  C
  C14      1.0000 0.70130  0.36920  0.87240  Biso   1.000  C
  C15      1.0000 0.71950  0.36380  0.93350  Biso   1.000  C
  H9       1.0000 0.71500  0.31570  0.95300  Biso   1.000  H
  C16      1.0000 0.74450  0.42490  0.96970  Biso   1.000  C
  H10      1.0000 0.75420  0.41900  0.01310  Biso   1.000  H
  C17      1.0000 0.75500  0.49540  0.94030  Biso   1.000  C
  C18      1.0000 0.78260  0.56640  0.97340  Biso   1.000  C
  C19      1.0000 0.74010  0.50250  0.87510  Biso   1.000  C
  C20      1.0000 0.71370  0.43410  0.84040  Biso   1.000  C
  C21      1.0000 0.62690  0.24440  0.73860  Biso   1.000  C
  H11      1.0000 0.65060  0.19740  0.75470  Biso   1.000  H
  H12      1.0000 0.64160  0.25000  0.69410  Biso   1.000  H
  C22      1.0000 0.53850  0.23740  0.74330  Biso   1.000  C
  C23      1.0000 0.50210  0.19810  0.70110  Biso   1.000  C
  H13      1.0000 0.53180  0.17390  0.66990  Biso   1.000  H
  C24      1.0000 0.42400  0.18840  0.69770  Biso   1.000  C
  H14      1.0000 0.40290  0.16090  0.66380  Biso   1.000  H
  N6       1.0000 0.37750  0.21770  0.74190  Biso   1.000  N
  C25      1.0000 0.40570  0.26450  0.78860  Biso   1.000  C
  H15      1.0000 0.37580  0.28800  0.82000  Biso   1.000  H
  C26      1.0000 0.48790  0.27260  0.78280  Biso   1.000  C
  H16      1.0000 0.50990  0.30800  0.81080  Biso   1.000  H
  C27      1.0000 0.20060  0.04730  0.04390  Biso   1.000  C
  C28      1.0000 0.22410  0.01750  0.99110  Biso   1.000  C
  H17      1.0000 0.24120  0.04950  0.95830  Biso   1.000  H
  C29      1.0000 0.22390  0.93780  0.98260  Biso   1.000  C
  H18      1.0000 0.24600  0.91740  0.94580  Biso   1.000  H
  N7       1.0000 0.19200  0.88740  0.02700  Biso   1.000  N
  C30      1.0000 0.17030  0.92140  0.07850  Biso   1.000  C
  H19      1.0000 0.15150  0.89050  0.11140  Biso   1.000  H
  C31      1.0000 0.17250  0.00060  0.08890  Biso   1.000  C
  H20      1.0000 0.15450  0.02110  0.12710  Biso   1.000  H
  C32      1.0000 0.20330  0.13600  0.05340  Biso   1.000  C
  H21      1.0000 0.24940  0.14860  0.07770  Biso   1.000  H
  H22      1.0000 0.20860  0.16020  0.01180  Biso   1.000  H
  C33      1.0000 0.07320  0.18340  0.04860  Biso   1.000  C
  C34      1.0000 0.00660  0.22780  0.07510  Biso   1.000  C
  C35      1.0000 0.94080  0.23740  0.03800  Biso   1.000  C
  H23      1.0000 0.93600  0.21660  0.99730  Biso   1.000  H
  C36      1.0000 0.88040  0.28230  0.06780  Biso   1.000  C
  H24      1.0000 0.83620  0.29340  0.04420  Biso   1.000  H
  C37      1.0000 0.88480  0.30870  0.12740  Biso   1.000  C
  C38      1.0000 0.82090  0.35610  0.15800  Biso   1.000  C
  C39      1.0000 0.89600  0.37200  0.25280  Biso   1.000  C
  C40      1.0000 0.95960  0.32630  0.22540  Biso   1.000  C
  C41      1.0000 0.02570  0.31130  0.26310  Biso   1.000  C
  H25      1.0000 0.02860  0.33020  0.30460  Biso   1.000  H
  C42      1.0000 0.08650  0.26810  0.23780  Biso   1.000  C
  H26      1.0000 0.13050  0.25800  0.26200  Biso   1.000  H
  C43      1.0000 0.08010  0.24060  0.17620  Biso   1.000  C
  C44      1.0000 0.14430  0.19220  0.14860  Biso   1.000  C
  C45      1.0000 0.01530  0.25420  0.13950  Biso   1.000  C
  C46      1.0000 0.95210  0.29800  0.16430  Biso   1.000  C
  C47      1.0000 0.76470  0.41840  0.24960  Biso   1.000  C
  H27      1.0000 0.76460  0.40470  0.29440  Biso   1.000  H
  H28      1.0000 0.71720  0.39890  0.23080  Biso   1.000  H
  C48      1.0000 0.76610  0.50850  0.24320  Biso   1.000  C
  C49      1.0000 0.78740  0.54720  0.19530  Biso   1.000  C
  H29      1.0000 0.80430  0.52310  0.15820  Biso   1.000  H
  C50      1.0000 0.78470  0.62240  0.20010  Biso   1.000  C
  H30      1.0000 0.79860  0.64870  0.16320  Biso   1.000  H
  N8       1.0000 0.76690  0.66460  0.24510  Biso   1.000  N
  C51      1.0000 0.73240  0.62840  0.29670  Biso   1.000  C
  C52      1.0000 0.73210  0.54790  0.29310  Biso   1.000  C
  H31      1.0000 0.70810  0.51990  0.32530  Biso   1.000  H
  C53      1.0000 0.49800  0.28440  0.70950  Biso   1.000  C
  C54      1.0000 0.42090  0.28480  0.70170  Biso   1.000  C
  C55      1.0000 0.43530  0.17400  0.77150  Biso   1.000  C
  C56      1.0000 0.51870  0.18390  0.76940  Biso   1.000  C
  C57      1.0000 0.74650  0.55050  0.19550  Biso   1.000  C
  C58      1.0000 0.74780  0.62620  0.19070  Biso   1.000  C
  C59      1.0000 0.79730  0.63470  0.28950  Biso   1.000  C
  C60      1.0000 0.79910  0.55370  0.29490  Biso   1.000  C
  Cd2      1.0000 0.80279  0.24440  0.50234  Biso   1.000  Cd
  N9       1.0000 0.20880  0.36820  0.44370  Biso   1.000  N
  N10      1.0000 0.34450  0.69020  0.27420  Biso   1.000  N
  N11      1.0000 0.86280  0.82990  0.58540  Biso   1.000  N
  N12      1.0000 0.17000  0.61840  0.71880  Biso   1.000  N
  O9       1.0000 0.19830  0.30180  0.34950  Biso   1.000  O
  O10      1.0000 0.20270  0.44130  0.53080  Biso   1.000  O
  O11      1.0000 0.33970  0.76230  0.36480  Biso   1.000  O
  O12      1.0000 0.35570  0.61800  0.18550  Biso   1.000  O
  O13      1.0000 0.92670  0.84120  0.49410  Biso   1.000  O
  O14      1.0000 0.79900  0.82280  0.67950  Biso   1.000  O
  O15      1.0000 0.24130  0.63360  0.62790  Biso   1.000  O
  O16      1.0000 0.09770  0.59580  0.80490  Biso   1.000  O
  C61      1.0000 0.09440  0.29270  0.48270  Biso   1.000  C
  C62      1.0000 0.05810  0.23900  0.52690  Biso   1.000  C
  H32      1.0000 0.08990  0.21360  0.55590  Biso   1.000  H
  C63      1.0000 0.98310  0.22380  0.52880  Biso   1.000  C
  H33      1.0000 0.96410  0.18520  0.55550  Biso   1.000  H
  N13      1.0000 0.93460  0.26500  0.49150  Biso   1.000  N
  C64      1.0000 0.96060  0.31510  0.45710  Biso   1.000  C
  H34      1.0000 0.92450  0.34490  0.43530  Biso   1.000  H
  C65      1.0000 0.04300  0.33420  0.44600  Biso   1.000  C
  H35      1.0000 0.05880  0.37120  0.41650  Biso   1.000  H
  C66      1.0000 0.18210  0.30070  0.47870  Biso   1.000  C
  H36      1.0000 0.20280  0.30290  0.52160  Biso   1.000  H
  H37      1.0000 0.20280  0.25470  0.45840  Biso   1.000  H
  C67      1.0000 0.21470  0.36130  0.37790  Biso   1.000  C
  C68      1.0000 0.24340  0.43030  0.34150  Biso   1.000  C
  C69      1.0000 0.25670  0.42780  0.27520  Biso   1.000  C
  H38      1.0000 0.24700  0.38200  0.25340  Biso   1.000  H
  C70      1.0000 0.28280  0.48870  0.24240  Biso   1.000  C
  H39      1.0000 0.28970  0.48580  0.19850  Biso   1.000  H
  C71      1.0000 0.29950  0.55670  0.27560  Biso   1.000  C
  C72      1.0000 0.33530  0.62420  0.24130  Biso   1.000  C
  C73      1.0000 0.32830  0.70020  0.33550  Biso   1.000  C
  C74      1.0000 0.29870  0.63080  0.37240  Biso   1.000  C
  C75      1.0000 0.28050  0.63620  0.43350  Biso   1.000  C
  H40      1.0000 0.28500  0.68430  0.45300  Biso   1.000  H
  C76      1.0000 0.25550  0.57510  0.46970  Biso   1.000  C
  H41      1.0000 0.24580  0.58100  0.51310  Biso   1.000  H
  C77      1.0000 0.24500  0.50460  0.44030  Biso   1.000  C
  C78      1.0000 0.21740  0.43360  0.47340  Biso   1.000  C
  C79      1.0000 0.25990  0.49750  0.37510  Biso   1.000  C
  C80      1.0000 0.28630  0.56590  0.34040  Biso   1.000  C
  C81      1.0000 0.37310  0.75560  0.23860  Biso   1.000  C
  H42      1.0000 0.34940  0.80260  0.25470  Biso   1.000  H
  H43      1.0000 0.35840  0.75000  0.19410  Biso   1.000  H
  C82      1.0000 0.46150  0.76260  0.24330  Biso   1.000  C
  C83      1.0000 0.49790  0.80190  0.20110  Biso   1.000  C
  H44      1.0000 0.46820  0.82610  0.16990  Biso   1.000  H
  C84      1.0000 0.57600  0.81160  0.19770  Biso   1.000  C
  H45      1.0000 0.59710  0.83910  0.16380  Biso   1.000  H
  N14      1.0000 0.62250  0.78230  0.24190  Biso   1.000  N
  C85      1.0000 0.59430  0.73550  0.28860  Biso   1.000  C
  H46      1.0000 0.62420  0.71200  0.32000  Biso   1.000  H
  C86      1.0000 0.51210  0.72740  0.28280  Biso   1.000  C
  H47      1.0000 0.49010  0.69200  0.31080  Biso   1.000  H
  C87      1.0000 0.79940  0.95270  0.54390  Biso   1.000  C
  C88      1.0000 0.77590  0.98250  0.49110  Biso   1.000  C
  H48      1.0000 0.75880  0.95050  0.45830  Biso   1.000  H
  C89      1.0000 0.77610  0.06220  0.48260  Biso   1.000  C
  H49      1.0000 0.75400  0.08260  0.44580  Biso   1.000  H
  N15      1.0000 0.80800  0.11260  0.52700  Biso   1.000  N
  C90      1.0000 0.82970  0.07860  0.57850  Biso   1.000  C
  H50      1.0000 0.84850  0.10950  0.61140  Biso   1.000  H
  C91      1.0000 0.82750  0.99940  0.58890  Biso   1.000  C
  H51      1.0000 0.84550  0.97890  0.62710  Biso   1.000  H
  C92      1.0000 0.79670  0.86400  0.55340  Biso   1.000  C
  H52      1.0000 0.75060  0.85140  0.57770  Biso   1.000  H
  H53      1.0000 0.79140  0.83980  0.51180  Biso   1.000  H
  C93      1.0000 0.92680  0.81660  0.54860  Biso   1.000  C
  C94      1.0000 0.99340  0.77220  0.57510  Biso   1.000  C
  C95      1.0000 0.05920  0.76260  0.53800  Biso   1.000  C
  H54      1.0000 0.06400  0.78340  0.49730  Biso   1.000  H
  C96      1.0000 0.11960  0.71770  0.56780  Biso   1.000  C
  H55      1.0000 0.16380  0.70660  0.54420  Biso   1.000  H
  C97      1.0000 0.11520  0.69130  0.62740  Biso   1.000  C
  C98      1.0000 0.17910  0.64390  0.65800  Biso   1.000  C
  C99      1.0000 0.10400  0.62800  0.75280  Biso   1.000  C
  C100     1.0000 0.04040  0.67370  0.72540  Biso   1.000  C
  C101     1.0000 0.97430  0.68870  0.76310  Biso   1.000  C
  H56      1.0000 0.97140  0.66980  0.80460  Biso   1.000  H
  C102     1.0000 0.91350  0.73190  0.73780  Biso   1.000  C
  H57      1.0000 0.86950  0.74200  0.76200  Biso   1.000  H
  C103     1.0000 0.91990  0.75940  0.67620  Biso   1.000  C
  C104     1.0000 0.85570  0.80780  0.64860  Biso   1.000  C
  C105     1.0000 0.98470  0.74580  0.63950  Biso   1.000  C
  C106     1.0000 0.04790  0.70200  0.66430  Biso   1.000  C
  C107     1.0000 0.23530  0.58160  0.74960  Biso   1.000  C
  H58      1.0000 0.23540  0.59530  0.79440  Biso   1.000  H
  H59      1.0000 0.28280  0.60110  0.73080  Biso   1.000  H
  C108     1.0000 0.23390  0.49150  0.74320  Biso   1.000  C
  C109     1.0000 0.21260  0.45280  0.69530  Biso   1.000  C
  H60      1.0000 0.19570  0.47690  0.65820  Biso   1.000  H
  C110     1.0000 0.21530  0.37760  0.70010  Biso   1.000  C
  H61      1.0000 0.20140  0.35130  0.66320  Biso   1.000  H
  N16      1.0000 0.23310  0.33540  0.74510  Biso   1.000  N
  C111     1.0000 0.26760  0.37160  0.79670  Biso   1.000  C
  C112     1.0000 0.26790  0.45210  0.79310  Biso   1.000  C
  H62      1.0000 0.29190  0.48010  0.82530  Biso   1.000  H
  C113     1.0000 0.50200  0.71560  0.20950  Biso   1.000  C
  C114     1.0000 0.57910  0.71520  0.20170  Biso   1.000  C
  C115     1.0000 0.56470  0.82600  0.27150  Biso   1.000  C
  C116     1.0000 0.48130  0.81610  0.26940  Biso   1.000  C
  C117     1.0000 0.25350  0.44950  0.69550  Biso   1.000  C
  C118     1.0000 0.25220  0.37380  0.69070  Biso   1.000  C
  C119     1.0000 0.20270  0.36530  0.78950  Biso   1.000  C
  C120     1.0000 0.20090  0.44630  0.79490  Biso   1.000  C
  Cd3      1.0000 0.24440  0.19721  0.75234  Biso   1.000  Cd
  N17      1.0000 0.36820  0.79120  0.69370  Biso   1.000  N
  N18      1.0000 0.69020  0.65550  0.52420  Biso   1.000  N
  N19      1.0000 0.82990  0.13720  0.83540  Biso   1.000  N
  N20      1.0000 0.61840  0.83000  0.96880  Biso   1.000  N
  O17      1.0000 0.30180  0.80170  0.59950  Biso   1.000  O
  O18      1.0000 0.44130  0.79730  0.78080  Biso   1.000  O
  O19      1.0000 0.76230  0.66030  0.61480  Biso   1.000  O
  O20      1.0000 0.61800  0.64430  0.43550  Biso   1.000  O
  O21      1.0000 0.84120  0.07330  0.74410  Biso   1.000  O
  O22      1.0000 0.82280  0.20100  0.92950  Biso   1.000  O
  O23      1.0000 0.63360  0.75870  0.87790  Biso   1.000  O
  O24      1.0000 0.59580  0.90230  0.05490  Biso   1.000  O
  C121     1.0000 0.29270  0.90560  0.73270  Biso   1.000  C
  C122     1.0000 0.23900  0.94190  0.77690  Biso   1.000  C
  H63      1.0000 0.21360  0.91010  0.80590  Biso   1.000  H
  C123     1.0000 0.22380  0.01690  0.77880  Biso   1.000  C
  H64      1.0000 0.18520  0.03590  0.80550  Biso   1.000  H
  N21      1.0000 0.26500  0.06540  0.74150  Biso   1.000  N
  C124     1.0000 0.31510  0.03940  0.70710  Biso   1.000  C
  H65      1.0000 0.34490  0.07550  0.68530  Biso   1.000  H
  C125     1.0000 0.33420  0.95700  0.69600  Biso   1.000  C
  H66      1.0000 0.37120  0.94120  0.66650  Biso   1.000  H
  C126     1.0000 0.30070  0.81790  0.72870  Biso   1.000  C
  H67      1.0000 0.30290  0.79720  0.77160  Biso   1.000  H
  H68      1.0000 0.25470  0.79720  0.70840  Biso   1.000  H
  C127     1.0000 0.36130  0.78530  0.62790  Biso   1.000  C
  C128     1.0000 0.43030  0.75660  0.59150  Biso   1.000  C
  C129     1.0000 0.42780  0.74330  0.52520  Biso   1.000  C
  H69      1.0000 0.38200  0.75300  0.50340  Biso   1.000  H
  C130     1.0000 0.48870  0.71720  0.49240  Biso   1.000  C
  H70      1.0000 0.48580  0.71030  0.44850  Biso   1.000  H
  C131     1.0000 0.55670  0.70050  0.52560  Biso   1.000  C
  C132     1.0000 0.62420  0.66470  0.49130  Biso   1.000  C
  C133     1.0000 0.70020  0.67170  0.58550  Biso   1.000  C
  C134     1.0000 0.63080  0.70130  0.62240  Biso   1.000  C
  C135     1.0000 0.63620  0.71950  0.68350  Biso   1.000  C
  H71      1.0000 0.68430  0.71500  0.70300  Biso   1.000  H
  C136     1.0000 0.57510  0.74450  0.71970  Biso   1.000  C
  H72      1.0000 0.58100  0.75420  0.76310  Biso   1.000  H
  C137     1.0000 0.50460  0.75500  0.69030  Biso   1.000  C
  C138     1.0000 0.43360  0.78260  0.72340  Biso   1.000  C
  C139     1.0000 0.49750  0.74010  0.62510  Biso   1.000  C
  C140     1.0000 0.56590  0.71370  0.59040  Biso   1.000  C
  C141     1.0000 0.75560  0.62690  0.48860  Biso   1.000  C
  H73      1.0000 0.80260  0.65060  0.50470  Biso   1.000  H
  H74      1.0000 0.75000  0.64160  0.44410  Biso   1.000  H
  C142     1.0000 0.76260  0.53850  0.49330  Biso   1.000  C
  C143     1.0000 0.80190  0.50210  0.45110  Biso   1.000  C
  H75      1.0000 0.82610  0.53180  0.41990  Biso   1.000  H
  C144     1.0000 0.81160  0.42400  0.44770  Biso   1.000  C
  H76      1.0000 0.83910  0.40290  0.41380  Biso   1.000  H
  N22      1.0000 0.78230  0.37750  0.49190  Biso   1.000  N
  C145     1.0000 0.73550  0.40570  0.53860  Biso   1.000  C
  H77      1.0000 0.71200  0.37580  0.57000  Biso   1.000  H
  C146     1.0000 0.72740  0.48790  0.53280  Biso   1.000  C
  H78      1.0000 0.69200  0.50990  0.56080  Biso   1.000  H
  C147     1.0000 0.95270  0.20060  0.79390  Biso   1.000  C
  C148     1.0000 0.98250  0.22410  0.74110  Biso   1.000  C
  H79      1.0000 0.95050  0.24120  0.70830  Biso   1.000  H
  C149     1.0000 0.06220  0.22390  0.73260  Biso   1.000  C
  H80      1.0000 0.08260  0.24600  0.69580  Biso   1.000  H
  N23      1.0000 0.11260  0.19200  0.77700  Biso   1.000  N
  C150     1.0000 0.07860  0.17030  0.82850  Biso   1.000  C
  H81      1.0000 0.10950  0.15150  0.86140  Biso   1.000  H
  C151     1.0000 0.99940  0.17250  0.83890  Biso   1.000  C
  H82      1.0000 0.97890  0.15450  0.87710  Biso   1.000  H
  C152     1.0000 0.86400  0.20330  0.80340  Biso   1.000  C
  H83      1.0000 0.85140  0.24940  0.82770  Biso   1.000  H
  H84      1.0000 0.83980  0.20860  0.76180  Biso   1.000  H
  C153     1.0000 0.81660  0.07320  0.79860  Biso   1.000  C
  C154     1.0000 0.77220  0.00660  0.82510  Biso   1.000  C
  C155     1.0000 0.76260  0.94080  0.78800  Biso   1.000  C
  H85      1.0000 0.78340  0.93600  0.74730  Biso   1.000  H
  C156     1.0000 0.71770  0.88040  0.81780  Biso   1.000  C
  H86      1.0000 0.70660  0.83620  0.79420  Biso   1.000  H
  C157     1.0000 0.69130  0.88480  0.87740  Biso   1.000  C
  C158     1.0000 0.64390  0.82090  0.90800  Biso   1.000  C
  C159     1.0000 0.62800  0.89600  0.00280  Biso   1.000  C
  C160     1.0000 0.67370  0.95960  0.97540  Biso   1.000  C
  C161     1.0000 0.68870  0.02570  0.01310  Biso   1.000  C
  H87      1.0000 0.66980  0.02860  0.05460  Biso   1.000  H
  C162     1.0000 0.73190  0.08650  0.98780  Biso   1.000  C
  H88      1.0000 0.74200  0.13050  0.01200  Biso   1.000  H
  C163     1.0000 0.75940  0.08010  0.92620  Biso   1.000  C
  C164     1.0000 0.80780  0.14430  0.89860  Biso   1.000  C
  C165     1.0000 0.74580  0.01530  0.88950  Biso   1.000  C
  C166     1.0000 0.70200  0.95210  0.91430  Biso   1.000  C
  C167     1.0000 0.58160  0.76470  0.99960  Biso   1.000  C
  H89      1.0000 0.59530  0.76460  0.04440  Biso   1.000  H
  H90      1.0000 0.60110  0.71720  0.98080  Biso   1.000  H
  C168     1.0000 0.49150  0.76610  0.99320  Biso   1.000  C
  C169     1.0000 0.45280  0.78740  0.94530  Biso   1.000  C
  H91      1.0000 0.47690  0.80430  0.90820  Biso   1.000  H
  C170     1.0000 0.37760  0.78470  0.95010  Biso   1.000  C
  H92      1.0000 0.35130  0.79860  0.91320  Biso   1.000  H
  N24      1.0000 0.33540  0.76690  0.99510  Biso   1.000  N
  C171     1.0000 0.37160  0.73240  0.04670  Biso   1.000  C
  C172     1.0000 0.45210  0.73210  0.04310  Biso   1.000  C
  H93      1.0000 0.48010  0.70810  0.07530  Biso   1.000  H
  C173     1.0000 0.71560  0.49800  0.45950  Biso   1.000  C
  C174     1.0000 0.71520  0.42090  0.45170  Biso   1.000  C
  C175     1.0000 0.82600  0.43530  0.52150  Biso   1.000  C
  C176     1.0000 0.81610  0.51870  0.51940  Biso   1.000  C
  C177     1.0000 0.44950  0.74650  0.94550  Biso   1.000  C
  C178     1.0000 0.37380  0.74780  0.94070  Biso   1.000  C
  C179     1.0000 0.36530  0.79730  0.03950  Biso   1.000  C
  C180     1.0000 0.44630  0.79910  0.04490  Biso   1.000  C
  Cd4      1.0000 0.75560  0.80279  0.25234  Biso   1.000  Cd
  N25      1.0000 0.63180  0.20880  0.19370  Biso   1.000  N
  N26      1.0000 0.30980  0.34450  0.02420  Biso   1.000  N
  N27      1.0000 0.17010  0.86280  0.33540  Biso   1.000  N
  N28      1.0000 0.38160  0.17000  0.46880  Biso   1.000  N
  O25      1.0000 0.69820  0.19830  0.09950  Biso   1.000  O
  O26      1.0000 0.55870  0.20270  0.28080  Biso   1.000  O
  O27      1.0000 0.23770  0.33970  0.11480  Biso   1.000  O
  O28      1.0000 0.38200  0.35570  0.93550  Biso   1.000  O
  O29      1.0000 0.15880  0.92670  0.24410  Biso   1.000  O
  O30      1.0000 0.17720  0.79900  0.42950  Biso   1.000  O
  O31      1.0000 0.36640  0.24130  0.37790  Biso   1.000  O
  O32      1.0000 0.40420  0.09770  0.55490  Biso   1.000  O
  C181     1.0000 0.70730  0.09440  0.23270  Biso   1.000  C
  C182     1.0000 0.76100  0.05810  0.27690  Biso   1.000  C
  H94      1.0000 0.78640  0.08990  0.30590  Biso   1.000  H
  C183     1.0000 0.77620  0.98310  0.27880  Biso   1.000  C
  H95      1.0000 0.81480  0.96410  0.30550  Biso   1.000  H
  N29      1.0000 0.73500  0.93460  0.24150  Biso   1.000  N
  C184     1.0000 0.68490  0.96060  0.20710  Biso   1.000  C
  H96      1.0000 0.65510  0.92450  0.18530  Biso   1.000  H
  C185     1.0000 0.66580  0.04300  0.19600  Biso   1.000  C
  H97      1.0000 0.62880  0.05880  0.16650  Biso   1.000  H
  C186     1.0000 0.69930  0.18210  0.22870  Biso   1.000  C
  H98      1.0000 0.69710  0.20280  0.27160  Biso   1.000  H
  H99      1.0000 0.74530  0.20280  0.20840  Biso   1.000  H
  C187     1.0000 0.63870  0.21470  0.12790  Biso   1.000  C
  C188     1.0000 0.56970  0.24340  0.09150  Biso   1.000  C
  C189     1.0000 0.57220  0.25670  0.02520  Biso   1.000  C
  H100     1.0000 0.61800  0.24700  0.00340  Biso   1.000  H
  C190     1.0000 0.51130  0.28280  0.99240  Biso   1.000  C
  H101     1.0000 0.51420  0.28970  0.94850  Biso   1.000  H
  C191     1.0000 0.44330  0.29950  0.02560  Biso   1.000  C
  C192     1.0000 0.37580  0.33530  0.99130  Biso   1.000  C
  C193     1.0000 0.29980  0.32830  0.08550  Biso   1.000  C
  C194     1.0000 0.36920  0.29870  0.12240  Biso   1.000  C
  C195     1.0000 0.36380  0.28050  0.18350  Biso   1.000  C
  H102     1.0000 0.31570  0.28500  0.20300  Biso   1.000  H
  C196     1.0000 0.42490  0.25550  0.21970  Biso   1.000  C
  H103     1.0000 0.41900  0.24580  0.26310  Biso   1.000  H
  C197     1.0000 0.49540  0.24500  0.19030  Biso   1.000  C
  C198     1.0000 0.56640  0.21740  0.22340  Biso   1.000  C
  C199     1.0000 0.50250  0.25990  0.12510  Biso   1.000  C
  C200     1.0000 0.43410  0.28630  0.09040  Biso   1.000  C
  C201     1.0000 0.24440  0.37310  0.98860  Biso   1.000  C
  H104     1.0000 0.19740  0.34940  0.00470  Biso   1.000  H
  H105     1.0000 0.25000  0.35840  0.94410  Biso   1.000  H
  C202     1.0000 0.23740  0.46150  0.99330  Biso   1.000  C
  C203     1.0000 0.19810  0.49790  0.95110  Biso   1.000  C
  H106     1.0000 0.17390  0.46820  0.91990  Biso   1.000  H
  C204     1.0000 0.18840  0.57600  0.94770  Biso   1.000  C
  H107     1.0000 0.16090  0.59710  0.91380  Biso   1.000  H
  N30      1.0000 0.21770  0.62250  0.99190  Biso   1.000  N
  C205     1.0000 0.26450  0.59430  0.03860  Biso   1.000  C
  H108     1.0000 0.28800  0.62420  0.07000  Biso   1.000  H
  C206     1.0000 0.27260  0.51210  0.03280  Biso   1.000  C
  H109     1.0000 0.30800  0.49010  0.06080  Biso   1.000  H
  C207     1.0000 0.04730  0.79940  0.29390  Biso   1.000  C
  C208     1.0000 0.01750  0.77590  0.24110  Biso   1.000  C
  H110     1.0000 0.04950  0.75880  0.20830  Biso   1.000  H
  C209     1.0000 0.93780  0.77610  0.23260  Biso   1.000  C
  H111     1.0000 0.91740  0.75400  0.19580  Biso   1.000  H
  N31      1.0000 0.88740  0.80800  0.27700  Biso   1.000  N
  C210     1.0000 0.92140  0.82970  0.32850  Biso   1.000  C
  H112     1.0000 0.89050  0.84850  0.36140  Biso   1.000  H
  C211     1.0000 0.00060  0.82750  0.33890  Biso   1.000  C
  H113     1.0000 0.02110  0.84550  0.37710  Biso   1.000  H
  C212     1.0000 0.13600  0.79670  0.30340  Biso   1.000  C
  H114     1.0000 0.14860  0.75060  0.32770  Biso   1.000  H
  H115     1.0000 0.16020  0.79140  0.26180  Biso   1.000  H
  C213     1.0000 0.18340  0.92680  0.29860  Biso   1.000  C
  C214     1.0000 0.22780  0.99340  0.32510  Biso   1.000  C
  C215     1.0000 0.23740  0.05920  0.28800  Biso   1.000  C
  H116     1.0000 0.21660  0.06400  0.24730  Biso   1.000  H
  C216     1.0000 0.28230  0.11960  0.31780  Biso   1.000  C
  H117     1.0000 0.29340  0.16380  0.29420  Biso   1.000  H
  C217     1.0000 0.30870  0.11520  0.37740  Biso   1.000  C
  C218     1.0000 0.35610  0.17910  0.40800  Biso   1.000  C
  C219     1.0000 0.37200  0.10400  0.50280  Biso   1.000  C
  C220     1.0000 0.32630  0.04040  0.47540  Biso   1.000  C
  C221     1.0000 0.31130  0.97430  0.51310  Biso   1.000  C
  H118     1.0000 0.33020  0.97140  0.55460  Biso   1.000  H
  C222     1.0000 0.26810  0.91350  0.48780  Biso   1.000  C
  H119     1.0000 0.25800  0.86950  0.51200  Biso   1.000  H
  C223     1.0000 0.24060  0.91990  0.42620  Biso   1.000  C
  C224     1.0000 0.19220  0.85570  0.39860  Biso   1.000  C
  C225     1.0000 0.25420  0.98470  0.38950  Biso   1.000  C
  C226     1.0000 0.29800  0.04790  0.41430  Biso   1.000  C
  C227     1.0000 0.41840  0.23530  0.49960  Biso   1.000  C
  H120     1.0000 0.40470  0.23540  0.54440  Biso   1.000  H
  H121     1.0000 0.39890  0.28280  0.48080  Biso   1.000  H
  C228     1.0000 0.50850  0.23390  0.49320  Biso   1.000  C
  C229     1.0000 0.54720  0.21260  0.44530  Biso   1.000  C
  H122     1.0000 0.52310  0.19570  0.40820  Biso   1.000  H
  C230     1.0000 0.62240  0.21530  0.45010  Biso   1.000  C
  H123     1.0000 0.64870  0.20140  0.41320  Biso   1.000  H
  N32      1.0000 0.66460  0.23310  0.49510  Biso   1.000  N
  C231     1.0000 0.62840  0.26760  0.54670  Biso   1.000  C
  C232     1.0000 0.54790  0.26790  0.54310  Biso   1.000  C
  H124     1.0000 0.51990  0.29190  0.57530  Biso   1.000  H
  C233     1.0000 0.28440  0.50200  0.95950  Biso   1.000  C
  C234     1.0000 0.28480  0.57910  0.95170  Biso   1.000  C
  C235     1.0000 0.17400  0.56470  0.02150  Biso   1.000  C
  C236     1.0000 0.18390  0.48130  0.01940  Biso   1.000  C
  C237     1.0000 0.55050  0.25350  0.44550  Biso   1.000  C
  C238     1.0000 0.62620  0.25220  0.44070  Biso   1.000  C
  C239     1.0000 0.63470  0.20270  0.53950  Biso   1.000  C
  C240     1.0000 0.55370  0.20090  0.54490  Biso   1.000  C
