data_image0
_cell_length_a       11.919
_cell_length_b       14.01
_cell_length_c       14.792
_cell_angle_alpha    118.055
_cell_angle_beta     105.125
_cell_angle_gamma    96.417

_symmetry_space_group_name_H-M    "P 1"
_symmetry_int_tables_number       1

loop_
  _symmetry_equiv_pos_as_xyz
  'x, y, z'

loop_
  _atom_site_label
  _atom_site_occupancy
  _atom_site_fract_x
  _atom_site_fract_y
  _atom_site_fract_z
  _atom_site_thermal_displace_type
  _atom_site_B_iso_or_equiv
  _atom_site_type_symbol
  Si1      1.0000 0.21250  0.46320  0.91140  Biso   1.000  Si
  O1       1.0000 0.61860  0.17790  0.60720  Biso   1.000  O
  O2       1.0000 0.46750  0.21640  0.18590  Biso   1.000  O
  O3       1.0000 0.65910  0.26170  0.51930  Biso   1.000  O
  O4       1.0000 0.38470  0.19580  0.46450  Biso   1.000  O
  O5       1.0000 0.46650  0.36990  0.51900  Biso   1.000  O
  O6       1.0000 0.34790  0.28400  0.27750  Biso   1.000  O
  C1       1.0000 0.04570  0.41950  0.83700  Biso   1.000  C
  C2       1.0000 0.37070  0.48630  0.79970  Biso   1.000  C
  H1       1.0000 0.40500  0.55970  0.85900  Biso   1.000  H
  C3       1.0000 0.25230  0.39140  0.98980  Biso   1.000  C
  C4       1.0000 0.27850  0.41720  0.80130  Biso   1.000  C
  C5       1.0000 0.21880  0.41660  0.07980  Biso   1.000  C
  H2       1.0000 0.16910  0.46420  0.09650  Biso   1.000  H
  C6       1.0000 0.27760  0.61880  0.01150  Biso   1.000  C
  C7       1.0000 0.32560  0.31800  0.96580  Biso   1.000  C
  H3       1.0000 0.34820  0.29820  0.90510  Biso   1.000  H
  C8       1.0000 0.99870  0.44530  0.75540  Biso   1.000  C
  H4       1.0000 0.04760  0.49900  0.75180  Biso   1.000  H
  C9       1.0000 0.27430  0.26750  0.62590  Biso   1.000  C
  H5       1.0000 0.24300  0.19300  0.56840  Biso   1.000  H
  C10      1.0000 0.96550  0.34600  0.84440  Biso   1.000  C
  H6       1.0000 0.99220  0.33060  0.89980  Biso   1.000  H
  C11      1.0000 0.36360  0.33820  0.62530  Biso   1.000  C
  C12      1.0000 0.23050  0.30580  0.71110  Biso   1.000  C
  H7       1.0000 0.16830  0.25720  0.70870  Biso   1.000  H
  C13      1.0000 0.80710  0.31500  0.68780  Biso   1.000  C
  C14      1.0000 0.25750  0.37280  0.14590  Biso   1.000  C
  H8       1.0000 0.23340  0.39070  0.20550  Biso   1.000  H
  C15      1.0000 0.36510  0.27410  0.03160  Biso   1.000  C
  H9       1.0000 0.41380  0.22570  0.01470  Biso   1.000  H
  C16      1.0000 0.84710  0.29470  0.77180  Biso   1.000  C
  H10      1.0000 0.79500  0.24680  0.77950  Biso   1.000  H
  C17      1.0000 0.38510  0.65710  0.09910  Biso   1.000  C
  H11      1.0000 0.42390  0.60570  0.10630  Biso   1.000  H
  C18      1.0000 0.88320  0.39270  0.68210  Biso   1.000  C
  H12      1.0000 0.85530  0.40910  0.62750  Biso   1.000  H
  C19      1.0000 0.41300  0.45100  0.71490  Biso   1.000  C
  H13      1.0000 0.47320  0.50020  0.71600  Biso   1.000  H
  C20      1.0000 0.40880  0.30000  0.53090  Biso   1.000  C
  C21      1.0000 0.22280  0.69830  0.00290  Biso   1.000  C
  H14      1.0000 0.15060  0.67550  0.94560  Biso   1.000  H
  C22      1.0000 0.37920  0.84900  0.16810  Biso   1.000  C
  C23      1.0000 0.43530  0.77140  0.17590  Biso   1.000  C
  H15      1.0000 0.50790  0.79560  0.23340  Biso   1.000  H
  C24      1.0000 0.27560  0.80970  0.07890  Biso   1.000  C
  H16      1.0000 0.23960  0.86180  0.06990  Biso   1.000  H
  C25      1.0000 0.33180  0.30260  0.12270  Biso   1.000  C
  C26      1.0000 0.38440  0.26470  0.19960  Biso   1.000  C
  C27      1.0000 0.68480  0.24650  0.59840  Biso   1.000  C
  O7       1.0000 0.37210  0.04790  0.51450  Biso   1.000  O
  O8       1.0000 0.23750  0.96180  0.33030  Biso   1.000  O
  O9       1.0000 0.24090  0.98460  0.48560  Biso   1.000  O
  N1       1.0000 0.17500  0.96200  0.39130  Biso   1.000  N
  O10      1.0000 0.07100  0.93880  0.36200  Biso   1.000  O
  Eu1      1.0000 0.50797  0.22523  0.36162  Biso   1.000  Eu
  Eu2      1.0000 0.44517  0.01800  0.47781  Biso   1.000  Eu
  O11      1.0000 0.48480  0.01460  0.32790  Biso   1.000  O
  O12      1.0000 0.36830  0.04010  0.20340  Biso   1.000  O
  C28      1.0000 0.41400  0.97390  0.23200  Biso   1.000  C
  C29      1.0000 0.44700  0.96500  0.27600  Biso   1.000  C
  O13      1.0000 0.41150  0.03720  0.26180  Biso   1.000  O
  O14      1.0000 0.52610  0.98590  0.36300  Biso   1.000  O
  Si2      1.0000 0.78750  0.53680  0.08860  Biso   1.000  Si
  O15      1.0000 0.38140  0.82210  0.39280  Biso   1.000  O
  O16      1.0000 0.53250  0.78360  0.81410  Biso   1.000  O
  O17      1.0000 0.34090  0.73830  0.48070  Biso   1.000  O
  O18      1.0000 0.61530  0.80420  0.53550  Biso   1.000  O
  O19      1.0000 0.53350  0.63010  0.48100  Biso   1.000  O
  O20      1.0000 0.65210  0.71600  0.72250  Biso   1.000  O
  C30      1.0000 0.95430  0.58050  0.16300  Biso   1.000  C
  C31      1.0000 0.62930  0.51370  0.20030  Biso   1.000  C
  H17      1.0000 0.59500  0.44030  0.14100  Biso   1.000  H
  C32      1.0000 0.74770  0.60860  0.01020  Biso   1.000  C
  C33      1.0000 0.72150  0.58280  0.19870  Biso   1.000  C
  C34      1.0000 0.78120  0.58340  0.92020  Biso   1.000  C
  H18      1.0000 0.83090  0.53580  0.90350  Biso   1.000  H
  C35      1.0000 0.72240  0.38120  0.98850  Biso   1.000  C
  C36      1.0000 0.67440  0.68200  0.03420  Biso   1.000  C
  H19      1.0000 0.65180  0.70180  0.09490  Biso   1.000  H
  C37      1.0000 0.00130  0.55470  0.24460  Biso   1.000  C
  H20      1.0000 0.95240  0.50100  0.24820  Biso   1.000  H
  C38      1.0000 0.72570  0.73250  0.37410  Biso   1.000  C
  H21      1.0000 0.75700  0.80700  0.43160  Biso   1.000  H
  C39      1.0000 0.03450  0.65400  0.15560  Biso   1.000  C
  H22      1.0000 0.00780  0.66940  0.10020  Biso   1.000  H
  C40      1.0000 0.63640  0.66180  0.37470  Biso   1.000  C
  C41      1.0000 0.76950  0.69420  0.28890  Biso   1.000  C
  H23      1.0000 0.83170  0.74280  0.29130  Biso   1.000  H
  C42      1.0000 0.19290  0.68500  0.31220  Biso   1.000  C
  C43      1.0000 0.74250  0.62720  0.85410  Biso   1.000  C
  H24      1.0000 0.76660  0.60930  0.79450  Biso   1.000  H
  C44      1.0000 0.63490  0.72590  0.96840  Biso   1.000  C
  H25      1.0000 0.58620  0.77430  0.98530  Biso   1.000  H
  C45      1.0000 0.15290  0.70530  0.22820  Biso   1.000  C
  H26      1.0000 0.20500  0.75320  0.22050  Biso   1.000  H
  C46      1.0000 0.61490  0.34290  0.90090  Biso   1.000  C
  H27      1.0000 0.57610  0.39430  0.89370  Biso   1.000  H
  C47      1.0000 0.11680  0.60730  0.31790  Biso   1.000  C
  H28      1.0000 0.14470  0.59090  0.37250  Biso   1.000  H
  C48      1.0000 0.58700  0.54900  0.28510  Biso   1.000  C
  H29      1.0000 0.52680  0.49980  0.28400  Biso   1.000  H
  C49      1.0000 0.59120  0.70000  0.46910  Biso   1.000  C
  C50      1.0000 0.77720  0.30170  0.99710  Biso   1.000  C
  H30      1.0000 0.84940  0.32450  0.05440  Biso   1.000  H
  C51      1.0000 0.62080  0.15100  0.83190  Biso   1.000  C
  C52      1.0000 0.56470  0.22860  0.82410  Biso   1.000  C
  H31      1.0000 0.49210  0.20440  0.76660  Biso   1.000  H
  C53      1.0000 0.72440  0.19030  0.92110  Biso   1.000  C
  H32      1.0000 0.76040  0.13820  0.93010  Biso   1.000  H
  C54      1.0000 0.66820  0.69740  0.87730  Biso   1.000  C
  C55      1.0000 0.61560  0.73530  0.80040  Biso   1.000  C
  C56      1.0000 0.31520  0.75350  0.40160  Biso   1.000  C
  O21      1.0000 0.62790  0.95210  0.48550  Biso   1.000  O
  O22      1.0000 0.76250  0.03820  0.66970  Biso   1.000  O
  O23      1.0000 0.75910  0.01540  0.51440  Biso   1.000  O
  N2       1.0000 0.82500  0.03800  0.60870  Biso   1.000  N
  O24      1.0000 0.92900  0.06120  0.63800  Biso   1.000  O
  Eu3      1.0000 0.49203  0.77477  0.63838  Biso   1.000  Eu
  Eu4      1.0000 0.55483  0.98200  0.52219  Biso   1.000  Eu
  O25      1.0000 0.51520  0.98540  0.67210  Biso   1.000  O
  O26      1.0000 0.63170  0.95990  0.79660  Biso   1.000  O
  C57      1.0000 0.58600  0.02610  0.76800  Biso   1.000  C
  C58      1.0000 0.55300  0.03500  0.72400  Biso   1.000  C
  O27      1.0000 0.58850  0.96280  0.73820  Biso   1.000  O
  O28      1.0000 0.47390  0.01410  0.63700  Biso   1.000  O
