data_image0
_cell_length_a       9.7481
_cell_length_b       9.885
_cell_length_c       21.3785
_cell_angle_alpha    90
_cell_angle_beta     93.467
_cell_angle_gamma    90

_symmetry_space_group_name_H-M    "P 1"
_symmetry_int_tables_number       1

loop_
  _symmetry_equiv_pos_as_xyz
  'x, y, z'

loop_
  _atom_site_label
  _atom_site_occupancy
  _atom_site_fract_x
  _atom_site_fract_y
  _atom_site_fract_z
  _atom_site_thermal_displace_type
  _atom_site_B_iso_or_equiv
  _atom_site_type_symbol
  C1       1.0000 0.23640  0.23200  0.17240  Biso   1.000  C
  C2       1.0000 0.24670  0.14500  0.11650  Biso   1.000  C
  C3       1.0000 0.14630  0.33560  0.18700  Biso   1.000  C
  C4       1.0000 0.03690  0.40790  0.15080  Biso   1.000  C
  C5       1.0000 0.28580  0.30110  0.26530  Biso   1.000  C
  H1       1.0000 0.32870  0.30800  0.30520  Biso   1.000  H
  C6       1.0000 0.72520  0.95280  0.14810  Biso   1.000  C
  C7       1.0000 0.73680  0.10130  0.14980  Biso   1.000  C
  C8       1.0000 0.79420  0.85070  0.11850  Biso   1.000  C
  C9       1.0000 0.90370  0.84290  0.07520  Biso   1.000  C
  C10      1.0000 0.63680  0.76250  0.17200  Biso   1.000  C
  H2       1.0000 0.58240  0.69860  0.19060  Biso   1.000  H
  Cd1      1.0000 0.46726  0.03643  0.21613  Biso   1.000  Cd
  Cd2      1.0000 0.81012  0.53903  0.09211  Biso   1.000  Cd
  Tb1      1.0000 0.93918  0.18787  0.03275  Biso   1.000  Tb
  N1       1.0000 0.32730  0.21190  0.22300  Biso   1.000  N
  N2       1.0000 0.18090  0.37820  0.24680  Biso   1.000  N
  N3       1.0000 0.62300  0.89630  0.18090  Biso   1.000  N
  N4       1.0000 0.73440  0.72960  0.13460  Biso   1.000  N
  O1       1.0000 0.34830  0.06600  0.11610  Biso   1.000  O
  O2       1.0000 0.15890  0.15300  0.07150  Biso   1.000  O
  O3       1.0000 0.00530  0.38180  0.09363  Biso   1.000  O
  O4       1.0000 0.97330  0.50090  0.17770  Biso   1.000  O
  O5       1.0000 0.65600  0.16520  0.18180  Biso   1.000  O
  O6       1.0000 0.83020  0.16030  0.12090  Biso   1.000  O
  O7       1.0000 0.95980  0.94830  0.05328  Biso   1.000  O
  O8       1.0000 0.94070  0.72650  0.05640  Biso   1.000  O
  O9       1.0000 0.63310  0.41620  0.12990  Biso   1.000  O
  H3       1.0000 0.67300  0.35800  0.15400  Biso   1.000  H
  H4       1.0000 0.56700  0.38000  0.10900  Biso   1.000  H
  O10      1.0000 0.68800  0.43300  0.17100  Biso   1.000  O
  H5       1.0000 0.65320  0.34280  0.16540  Biso   1.000  H
  H6       1.0000 0.77310  0.45190  0.17300  Biso   1.000  H
  C11      1.0000 0.26360  0.73200  0.32760  Biso   1.000  C
  C12      1.0000 0.25330  0.64500  0.38350  Biso   1.000  C
  C13      1.0000 0.35370  0.83560  0.31300  Biso   1.000  C
  C14      1.0000 0.46310  0.90790  0.34920  Biso   1.000  C
  C15      1.0000 0.21420  0.80110  0.23470  Biso   1.000  C
  H7       1.0000 0.17130  0.80800  0.19480  Biso   1.000  H
  C16      1.0000 0.77480  0.45280  0.35190  Biso   1.000  C
  C17      1.0000 0.76320  0.60130  0.35020  Biso   1.000  C
  C18      1.0000 0.70580  0.35070  0.38150  Biso   1.000  C
  C19      1.0000 0.59630  0.34290  0.42480  Biso   1.000  C
  C20      1.0000 0.86320  0.26250  0.32800  Biso   1.000  C
  H8       1.0000 0.91760  0.19860  0.30940  Biso   1.000  H
  Cd3      1.0000 0.03274  0.53643  0.28387  Biso   1.000  Cd
  Cd4      1.0000 0.68988  0.03903  0.40789  Biso   1.000  Cd
  Tb2      1.0000 0.56082  0.68787  0.46725  Biso   1.000  Tb
  N5       1.0000 0.17270  0.71190  0.27700  Biso   1.000  N
  N6       1.0000 0.31910  0.87820  0.25320  Biso   1.000  N
  N7       1.0000 0.87700  0.39630  0.31910  Biso   1.000  N
  N8       1.0000 0.76560  0.22960  0.36540  Biso   1.000  N
  O11      1.0000 0.15170  0.56600  0.38390  Biso   1.000  O
  O12      1.0000 0.34110  0.65300  0.42850  Biso   1.000  O
  O13      1.0000 0.49470  0.88180  0.40637  Biso   1.000  O
  O14      1.0000 0.52670  0.00090  0.32230  Biso   1.000  O
  O15      1.0000 0.84400  0.66520  0.31820  Biso   1.000  O
  O16      1.0000 0.66980  0.66030  0.37910  Biso   1.000  O
  O17      1.0000 0.54020  0.44830  0.44672  Biso   1.000  O
  O18      1.0000 0.55930  0.22650  0.44360  Biso   1.000  O
  O19      1.0000 0.86690  0.91620  0.37010  Biso   1.000  O
  H9       1.0000 0.82700  0.85800  0.34600  Biso   1.000  H
  H10      1.0000 0.93300  0.88000  0.39100  Biso   1.000  H
  O20      1.0000 0.81200  0.93300  0.32900  Biso   1.000  O
  H11      1.0000 0.84680  0.84280  0.33460  Biso   1.000  H
  H12      1.0000 0.72690  0.95190  0.32700  Biso   1.000  H
  C21      1.0000 0.76360  0.76800  0.82760  Biso   1.000  C
  C22      1.0000 0.75330  0.85500  0.88350  Biso   1.000  C
  C23      1.0000 0.85370  0.66440  0.81300  Biso   1.000  C
  C24      1.0000 0.96310  0.59210  0.84920  Biso   1.000  C
  C25      1.0000 0.71420  0.69890  0.73470  Biso   1.000  C
  H13      1.0000 0.67130  0.69200  0.69480  Biso   1.000  H
  C26      1.0000 0.27480  0.04720  0.85190  Biso   1.000  C
  C27      1.0000 0.26320  0.89870  0.85020  Biso   1.000  C
  C28      1.0000 0.20580  0.14930  0.88150  Biso   1.000  C
  C29      1.0000 0.09630  0.15710  0.92480  Biso   1.000  C
  C30      1.0000 0.36320  0.23750  0.82800  Biso   1.000  C
  H14      1.0000 0.41760  0.30140  0.80940  Biso   1.000  H
  Cd5      1.0000 0.53274  0.96357  0.78387  Biso   1.000  Cd
  Cd6      1.0000 0.18988  0.46097  0.90789  Biso   1.000  Cd
  Tb3      1.0000 0.06082  0.81213  0.96725  Biso   1.000  Tb
  N9       1.0000 0.67270  0.78810  0.77700  Biso   1.000  N
  N10      1.0000 0.81910  0.62180  0.75320  Biso   1.000  N
  N11      1.0000 0.37700  0.10370  0.81910  Biso   1.000  N
  N12      1.0000 0.26560  0.27040  0.86540  Biso   1.000  N
  O21      1.0000 0.65170  0.93400  0.88390  Biso   1.000  O
  O22      1.0000 0.84110  0.84700  0.92850  Biso   1.000  O
  O23      1.0000 0.99470  0.61820  0.90637  Biso   1.000  O
  O24      1.0000 0.02670  0.49910  0.82230  Biso   1.000  O
  O25      1.0000 0.34400  0.83480  0.81820  Biso   1.000  O
  O26      1.0000 0.16980  0.83970  0.87910  Biso   1.000  O
  O27      1.0000 0.04020  0.05170  0.94672  Biso   1.000  O
  O28      1.0000 0.05930  0.27350  0.94360  Biso   1.000  O
  O29      1.0000 0.36690  0.58380  0.87010  Biso   1.000  O
  H15      1.0000 0.32700  0.64200  0.84600  Biso   1.000  H
  H16      1.0000 0.43300  0.62000  0.89100  Biso   1.000  H
  O30      1.0000 0.31200  0.56700  0.82900  Biso   1.000  O
  H17      1.0000 0.34680  0.65720  0.83460  Biso   1.000  H
  H18      1.0000 0.22690  0.54810  0.82700  Biso   1.000  H
  C31      1.0000 0.73640  0.26800  0.67240  Biso   1.000  C
  C32      1.0000 0.74670  0.35500  0.61650  Biso   1.000  C
  C33      1.0000 0.64630  0.16440  0.68700  Biso   1.000  C
  C34      1.0000 0.53690  0.09210  0.65080  Biso   1.000  C
  C35      1.0000 0.78580  0.19890  0.76530  Biso   1.000  C
  H19      1.0000 0.82870  0.19200  0.80520  Biso   1.000  H
  C36      1.0000 0.22520  0.54720  0.64810  Biso   1.000  C
  C37      1.0000 0.23680  0.39870  0.64980  Biso   1.000  C
  C38      1.0000 0.29420  0.64930  0.61850  Biso   1.000  C
  C39      1.0000 0.40370  0.65710  0.57520  Biso   1.000  C
  C40      1.0000 0.13680  0.73750  0.67200  Biso   1.000  C
  H20      1.0000 0.08240  0.80140  0.69060  Biso   1.000  H
  Cd7      1.0000 0.96726  0.46357  0.71613  Biso   1.000  Cd
  Cd8      1.0000 0.31012  0.96097  0.59211  Biso   1.000  Cd
  Tb4      1.0000 0.43918  0.31213  0.53275  Biso   1.000  Tb
  N13      1.0000 0.82730  0.28810  0.72300  Biso   1.000  N
  N14      1.0000 0.68090  0.12180  0.74680  Biso   1.000  N
  N15      1.0000 0.12300  0.60370  0.68090  Biso   1.000  N
  N16      1.0000 0.23440  0.77040  0.63460  Biso   1.000  N
  O31      1.0000 0.84830  0.43400  0.61610  Biso   1.000  O
  O32      1.0000 0.65890  0.34700  0.57150  Biso   1.000  O
  O33      1.0000 0.50530  0.11820  0.59363  Biso   1.000  O
  O34      1.0000 0.47330  0.99910  0.67770  Biso   1.000  O
  O35      1.0000 0.15600  0.33480  0.68180  Biso   1.000  O
  O36      1.0000 0.33020  0.33970  0.62090  Biso   1.000  O
  O37      1.0000 0.45980  0.55170  0.55328  Biso   1.000  O
  O38      1.0000 0.44070  0.77350  0.55640  Biso   1.000  O
  O39      1.0000 0.13310  0.08380  0.62990  Biso   1.000  O
  H21      1.0000 0.17300  0.14200  0.65400  Biso   1.000  H
  H22      1.0000 0.06700  0.12000  0.60900  Biso   1.000  H
  O40      1.0000 0.18800  0.06700  0.67100  Biso   1.000  O
  H23      1.0000 0.15320  0.15720  0.66540  Biso   1.000  H
  H24      1.0000 0.27310  0.04810  0.67300  Biso   1.000  H
