data_image0
_cell_length_a       21.869
_cell_length_b       21.869
_cell_length_c       11.929
_cell_angle_alpha    90
_cell_angle_beta     90
_cell_angle_gamma    90

_symmetry_space_group_name_H-M    "P 1"
_symmetry_int_tables_number       1

loop_
  _symmetry_equiv_pos_as_xyz
  'x, y, z'

loop_
  _atom_site_label
  _atom_site_occupancy
  _atom_site_fract_x
  _atom_site_fract_y
  _atom_site_fract_z
  _atom_site_thermal_displace_type
  _atom_site_B_iso_or_equiv
  _atom_site_type_symbol
  Mo1      1.0000 0.07875  0.64527  0.16763  Biso   1.000  Mo
  O1       1.0000 0.06240  0.62280  0.01480  Biso   1.000  O
  O2       1.0000 0.13410  0.57490  0.17170  Biso   1.000  O
  O3       1.0000 0.27220  0.51560  0.89460  Biso   1.000  O
  O4       1.0000 0.19980  0.62930  0.96700  Biso   1.000  O
  O5       1.0000 0.15160  0.55950  0.82900  Biso   1.000  O
  O6       1.0000 0.26690  0.54990  0.13080  Biso   1.000  O
  C1       1.0000 0.38300  0.54200  0.24100  Biso   1.000  C
  C2       1.0000 0.43100  0.54200  0.31900  Biso   1.000  C
  C3       1.0000 0.38300  0.46000  0.41900  Biso   1.000  C
  C4       1.0000 0.33600  0.45900  0.34200  Biso   1.000  C
  La1      1.0000 0.17648  0.51557  0.02938  Biso   1.000  La
  O7       1.0000 0.17630  0.59580  0.94000  Biso   1.000  O
  O8       1.0000 0.14980  0.52240  0.82200  Biso   1.000  O
  C5       1.0000 0.34800  0.55320  0.31300  Biso   1.000  C
  C6       1.0000 0.39710  0.55410  0.39000  Biso   1.000  C
  C7       1.0000 0.42100  0.54950  0.33900  Biso   1.000  C
  C8       1.0000 0.36940  0.55190  0.26900  Biso   1.000  C
  Mo2      1.0000 0.57875  0.14527  0.66763  Biso   1.000  Mo
  O9       1.0000 0.56240  0.12280  0.51480  Biso   1.000  O
  O10      1.0000 0.63410  0.07490  0.67170  Biso   1.000  O
  O11      1.0000 0.77220  0.01560  0.39460  Biso   1.000  O
  O12      1.0000 0.69980  0.12930  0.46700  Biso   1.000  O
  O13      1.0000 0.65160  0.05950  0.32900  Biso   1.000  O
  O14      1.0000 0.76690  0.04990  0.63080  Biso   1.000  O
  C9       1.0000 0.88300  0.04200  0.74100  Biso   1.000  C
  C10      1.0000 0.93100  0.04200  0.81900  Biso   1.000  C
  C11      1.0000 0.88300  0.96000  0.91900  Biso   1.000  C
  C12      1.0000 0.83600  0.95900  0.84200  Biso   1.000  C
  La2      1.0000 0.67648  0.01557  0.52938  Biso   1.000  La
  O15      1.0000 0.67630  0.09580  0.44000  Biso   1.000  O
  O16      1.0000 0.64980  0.02240  0.32200  Biso   1.000  O
  C13      1.0000 0.84800  0.05320  0.81300  Biso   1.000  C
  C14      1.0000 0.89710  0.05410  0.89000  Biso   1.000  C
  C15      1.0000 0.92100  0.04950  0.83900  Biso   1.000  C
  C16      1.0000 0.86940  0.05190  0.76900  Biso   1.000  C
  Mo3      1.0000 0.92125  0.35473  0.16763  Biso   1.000  Mo
  O17      1.0000 0.93760  0.37720  0.01480  Biso   1.000  O
  O18      1.0000 0.86590  0.42510  0.17170  Biso   1.000  O
  O19      1.0000 0.72780  0.48440  0.89460  Biso   1.000  O
  O20      1.0000 0.80020  0.37070  0.96700  Biso   1.000  O
  O21      1.0000 0.84840  0.44050  0.82900  Biso   1.000  O
  O22      1.0000 0.73310  0.45010  0.13080  Biso   1.000  O
  C17      1.0000 0.61700  0.45800  0.24100  Biso   1.000  C
  C18      1.0000 0.56900  0.45800  0.31900  Biso   1.000  C
  C19      1.0000 0.61700  0.54000  0.41900  Biso   1.000  C
  C20      1.0000 0.66400  0.54100  0.34200  Biso   1.000  C
  La3      1.0000 0.82352  0.48443  0.02938  Biso   1.000  La
  O23      1.0000 0.82370  0.40420  0.94000  Biso   1.000  O
  O24      1.0000 0.85020  0.47760  0.82200  Biso   1.000  O
  C21      1.0000 0.65200  0.44680  0.31300  Biso   1.000  C
  C22      1.0000 0.60290  0.44590  0.39000  Biso   1.000  C
  C23      1.0000 0.57900  0.45050  0.33900  Biso   1.000  C
  C24      1.0000 0.63060  0.44810  0.26900  Biso   1.000  C
  Mo4      1.0000 0.42125  0.85473  0.66763  Biso   1.000  Mo
  O25      1.0000 0.43760  0.87720  0.51480  Biso   1.000  O
  O26      1.0000 0.36590  0.92510  0.67170  Biso   1.000  O
  O27      1.0000 0.22780  0.98440  0.39460  Biso   1.000  O
  O28      1.0000 0.30020  0.87070  0.46700  Biso   1.000  O
  O29      1.0000 0.34840  0.94050  0.32900  Biso   1.000  O
  O30      1.0000 0.23310  0.95010  0.63080  Biso   1.000  O
  C25      1.0000 0.11700  0.95800  0.74100  Biso   1.000  C
  C26      1.0000 0.06900  0.95800  0.81900  Biso   1.000  C
  C27      1.0000 0.11700  0.04000  0.91900  Biso   1.000  C
  C28      1.0000 0.16400  0.04100  0.84200  Biso   1.000  C
  La4      1.0000 0.32352  0.98443  0.52938  Biso   1.000  La
  O31      1.0000 0.32370  0.90420  0.44000  Biso   1.000  O
  O32      1.0000 0.35020  0.97760  0.32200  Biso   1.000  O
  C29      1.0000 0.15200  0.94680  0.81300  Biso   1.000  C
  C30      1.0000 0.10290  0.94590  0.89000  Biso   1.000  C
  C31      1.0000 0.07900  0.95050  0.83900  Biso   1.000  C
  C32      1.0000 0.13060  0.94810  0.76900  Biso   1.000  C
  Mo5      1.0000 0.64527  0.92125  0.83237  Biso   1.000  Mo
  O33      1.0000 0.62280  0.93760  0.98520  Biso   1.000  O
  O34      1.0000 0.57490  0.86590  0.82830  Biso   1.000  O
  O35      1.0000 0.51560  0.72780  0.10540  Biso   1.000  O
  O36      1.0000 0.62930  0.80020  0.03300  Biso   1.000  O
  O37      1.0000 0.55950  0.84840  0.17100  Biso   1.000  O
  O38      1.0000 0.54990  0.73310  0.86920  Biso   1.000  O
  C33      1.0000 0.54200  0.61700  0.75900  Biso   1.000  C
  C34      1.0000 0.54200  0.56900  0.68100  Biso   1.000  C
  C35      1.0000 0.46000  0.61700  0.58100  Biso   1.000  C
  C36      1.0000 0.45900  0.66400  0.65800  Biso   1.000  C
  La5      1.0000 0.51557  0.82352  0.97062  Biso   1.000  La
  O39      1.0000 0.59580  0.82370  0.06000  Biso   1.000  O
  O40      1.0000 0.52240  0.85020  0.17800  Biso   1.000  O
  C37      1.0000 0.55320  0.65200  0.68700  Biso   1.000  C
  C38      1.0000 0.55410  0.60290  0.61000  Biso   1.000  C
  C39      1.0000 0.54950  0.57900  0.66100  Biso   1.000  C
  C40      1.0000 0.55190  0.63060  0.73100  Biso   1.000  C
  Mo6      1.0000 0.14527  0.42125  0.33237  Biso   1.000  Mo
  O41      1.0000 0.12280  0.43760  0.48520  Biso   1.000  O
  O42      1.0000 0.07490  0.36590  0.32830  Biso   1.000  O
  O43      1.0000 0.01560  0.22780  0.60540  Biso   1.000  O
  O44      1.0000 0.12930  0.30020  0.53300  Biso   1.000  O
  O45      1.0000 0.05950  0.34840  0.67100  Biso   1.000  O
  O46      1.0000 0.04990  0.23310  0.36920  Biso   1.000  O
  C41      1.0000 0.04200  0.11700  0.25900  Biso   1.000  C
  C42      1.0000 0.04200  0.06900  0.18100  Biso   1.000  C
  C43      1.0000 0.96000  0.11700  0.08100  Biso   1.000  C
  C44      1.0000 0.95900  0.16400  0.15800  Biso   1.000  C
  La6      1.0000 0.01557  0.32352  0.47062  Biso   1.000  La
  O47      1.0000 0.09580  0.32370  0.56000  Biso   1.000  O
  O48      1.0000 0.02240  0.35020  0.67800  Biso   1.000  O
  C45      1.0000 0.05320  0.15200  0.18700  Biso   1.000  C
  C46      1.0000 0.05410  0.10290  0.11000  Biso   1.000  C
  C47      1.0000 0.04950  0.07900  0.16100  Biso   1.000  C
  C48      1.0000 0.05190  0.13060  0.23100  Biso   1.000  C
  Mo7      1.0000 0.35473  0.07875  0.83237  Biso   1.000  Mo
  O49      1.0000 0.37720  0.06240  0.98520  Biso   1.000  O
  O50      1.0000 0.42510  0.13410  0.82830  Biso   1.000  O
  O51      1.0000 0.48440  0.27220  0.10540  Biso   1.000  O
  O52      1.0000 0.37070  0.19980  0.03300  Biso   1.000  O
  O53      1.0000 0.44050  0.15160  0.17100  Biso   1.000  O
  O54      1.0000 0.45010  0.26690  0.86920  Biso   1.000  O
  C49      1.0000 0.45800  0.38300  0.75900  Biso   1.000  C
  C50      1.0000 0.45800  0.43100  0.68100  Biso   1.000  C
  C51      1.0000 0.54000  0.38300  0.58100  Biso   1.000  C
  C52      1.0000 0.54100  0.33600  0.65800  Biso   1.000  C
  La7      1.0000 0.48443  0.17648  0.97062  Biso   1.000  La
  O55      1.0000 0.40420  0.17630  0.06000  Biso   1.000  O
  O56      1.0000 0.47760  0.14980  0.17800  Biso   1.000  O
  C53      1.0000 0.44680  0.34800  0.68700  Biso   1.000  C
  C54      1.0000 0.44590  0.39710  0.61000  Biso   1.000  C
  C55      1.0000 0.45050  0.42100  0.66100  Biso   1.000  C
  C56      1.0000 0.44810  0.36940  0.73100  Biso   1.000  C
  Mo8      1.0000 0.85473  0.57875  0.33237  Biso   1.000  Mo
  O57      1.0000 0.87720  0.56240  0.48520  Biso   1.000  O
  O58      1.0000 0.92510  0.63410  0.32830  Biso   1.000  O
  O59      1.0000 0.98440  0.77220  0.60540  Biso   1.000  O
  O60      1.0000 0.87070  0.69980  0.53300  Biso   1.000  O
  O61      1.0000 0.94050  0.65160  0.67100  Biso   1.000  O
  O62      1.0000 0.95010  0.76690  0.36920  Biso   1.000  O
  C57      1.0000 0.95800  0.88300  0.25900  Biso   1.000  C
  C58      1.0000 0.95800  0.93100  0.18100  Biso   1.000  C
  C59      1.0000 0.04000  0.88300  0.08100  Biso   1.000  C
  C60      1.0000 0.04100  0.83600  0.15800  Biso   1.000  C
  La8      1.0000 0.98443  0.67648  0.47062  Biso   1.000  La
  O63      1.0000 0.90420  0.67630  0.56000  Biso   1.000  O
  O64      1.0000 0.97760  0.64980  0.67800  Biso   1.000  O
  C61      1.0000 0.94680  0.84800  0.18700  Biso   1.000  C
  C62      1.0000 0.94590  0.89710  0.11000  Biso   1.000  C
  C63      1.0000 0.95050  0.92100  0.16100  Biso   1.000  C
  C64      1.0000 0.94810  0.86940  0.23100  Biso   1.000  C
  Mo9      1.0000 0.07875  0.35473  0.16763  Biso   1.000  Mo
  O65      1.0000 0.06240  0.37720  0.01480  Biso   1.000  O
  O66      1.0000 0.13410  0.42510  0.17170  Biso   1.000  O
  O67      1.0000 0.27220  0.48440  0.89460  Biso   1.000  O
  O68      1.0000 0.19980  0.37070  0.96700  Biso   1.000  O
  O69      1.0000 0.15160  0.44050  0.82900  Biso   1.000  O
  O70      1.0000 0.26690  0.45010  0.13080  Biso   1.000  O
  C65      1.0000 0.38300  0.45800  0.24100  Biso   1.000  C
  C66      1.0000 0.43100  0.45800  0.31900  Biso   1.000  C
  C67      1.0000 0.38300  0.54000  0.41900  Biso   1.000  C
  C68      1.0000 0.33600  0.54100  0.34200  Biso   1.000  C
  La9      1.0000 0.17648  0.48443  0.02938  Biso   1.000  La
  O71      1.0000 0.17630  0.40420  0.94000  Biso   1.000  O
  O72      1.0000 0.14980  0.47760  0.82200  Biso   1.000  O
  C69      1.0000 0.34800  0.44680  0.31300  Biso   1.000  C
  C70      1.0000 0.39710  0.44590  0.39000  Biso   1.000  C
  C71      1.0000 0.42100  0.45050  0.33900  Biso   1.000  C
  C72      1.0000 0.36940  0.44810  0.26900  Biso   1.000  C
  Mo10     1.0000 0.57875  0.85473  0.66763  Biso   1.000  Mo
  O73      1.0000 0.56240  0.87720  0.51480  Biso   1.000  O
  O74      1.0000 0.63410  0.92510  0.67170  Biso   1.000  O
  O75      1.0000 0.77220  0.98440  0.39460  Biso   1.000  O
  O76      1.0000 0.69980  0.87070  0.46700  Biso   1.000  O
  O77      1.0000 0.65160  0.94050  0.32900  Biso   1.000  O
  O78      1.0000 0.76690  0.95010  0.63080  Biso   1.000  O
  C73      1.0000 0.88300  0.95800  0.74100  Biso   1.000  C
  C74      1.0000 0.93100  0.95800  0.81900  Biso   1.000  C
  C75      1.0000 0.88300  0.04000  0.91900  Biso   1.000  C
  C76      1.0000 0.83600  0.04100  0.84200  Biso   1.000  C
  La10     1.0000 0.67648  0.98443  0.52938  Biso   1.000  La
  O79      1.0000 0.67630  0.90420  0.44000  Biso   1.000  O
  O80      1.0000 0.64980  0.97760  0.32200  Biso   1.000  O
  C77      1.0000 0.84800  0.94680  0.81300  Biso   1.000  C
  C78      1.0000 0.89710  0.94590  0.89000  Biso   1.000  C
  C79      1.0000 0.92100  0.95050  0.83900  Biso   1.000  C
  C80      1.0000 0.86940  0.94810  0.76900  Biso   1.000  C
  Mo11     1.0000 0.92125  0.64527  0.16763  Biso   1.000  Mo
  O81      1.0000 0.93760  0.62280  0.01480  Biso   1.000  O
  O82      1.0000 0.86590  0.57490  0.17170  Biso   1.000  O
  O83      1.0000 0.72780  0.51560  0.89460  Biso   1.000  O
  O84      1.0000 0.80020  0.62930  0.96700  Biso   1.000  O
  O85      1.0000 0.84840  0.55950  0.82900  Biso   1.000  O
  O86      1.0000 0.73310  0.54990  0.13080  Biso   1.000  O
  C81      1.0000 0.61700  0.54200  0.24100  Biso   1.000  C
  C82      1.0000 0.56900  0.54200  0.31900  Biso   1.000  C
  C83      1.0000 0.61700  0.46000  0.41900  Biso   1.000  C
  C84      1.0000 0.66400  0.45900  0.34200  Biso   1.000  C
  La11     1.0000 0.82352  0.51557  0.02938  Biso   1.000  La
  O87      1.0000 0.82370  0.59580  0.94000  Biso   1.000  O
  O88      1.0000 0.85020  0.52240  0.82200  Biso   1.000  O
  C85      1.0000 0.65200  0.55320  0.31300  Biso   1.000  C
  C86      1.0000 0.60290  0.55410  0.39000  Biso   1.000  C
  C87      1.0000 0.57900  0.54950  0.33900  Biso   1.000  C
  C88      1.0000 0.63060  0.55190  0.26900  Biso   1.000  C
  Mo12     1.0000 0.42125  0.14527  0.66763  Biso   1.000  Mo
  O89      1.0000 0.43760  0.12280  0.51480  Biso   1.000  O
  O90      1.0000 0.36590  0.07490  0.67170  Biso   1.000  O
  O91      1.0000 0.22780  0.01560  0.39460  Biso   1.000  O
  O92      1.0000 0.30020  0.12930  0.46700  Biso   1.000  O
  O93      1.0000 0.34840  0.05950  0.32900  Biso   1.000  O
  O94      1.0000 0.23310  0.04990  0.63080  Biso   1.000  O
  C89      1.0000 0.11700  0.04200  0.74100  Biso   1.000  C
  C90      1.0000 0.06900  0.04200  0.81900  Biso   1.000  C
  C91      1.0000 0.11700  0.96000  0.91900  Biso   1.000  C
  C92      1.0000 0.16400  0.95900  0.84200  Biso   1.000  C
  La12     1.0000 0.32352  0.01557  0.52938  Biso   1.000  La
  O95      1.0000 0.32370  0.09580  0.44000  Biso   1.000  O
  O96      1.0000 0.35020  0.02240  0.32200  Biso   1.000  O
  C93      1.0000 0.15200  0.05320  0.81300  Biso   1.000  C
  C94      1.0000 0.10290  0.05410  0.89000  Biso   1.000  C
  C95      1.0000 0.07900  0.04950  0.83900  Biso   1.000  C
  C96      1.0000 0.13060  0.05190  0.76900  Biso   1.000  C
  Mo13     1.0000 0.64527  0.07875  0.83237  Biso   1.000  Mo
  O97      1.0000 0.62280  0.06240  0.98520  Biso   1.000  O
  O98      1.0000 0.57490  0.13410  0.82830  Biso   1.000  O
  O99      1.0000 0.51560  0.27220  0.10540  Biso   1.000  O
  O100     1.0000 0.62930  0.19980  0.03300  Biso   1.000  O
  O101     1.0000 0.55950  0.15160  0.17100  Biso   1.000  O
  O102     1.0000 0.54990  0.26690  0.86920  Biso   1.000  O
  C97      1.0000 0.54200  0.38300  0.75900  Biso   1.000  C
  C98      1.0000 0.54200  0.43100  0.68100  Biso   1.000  C
  C99      1.0000 0.46000  0.38300  0.58100  Biso   1.000  C
  C100     1.0000 0.45900  0.33600  0.65800  Biso   1.000  C
  La13     1.0000 0.51557  0.17648  0.97062  Biso   1.000  La
  O103     1.0000 0.59580  0.17630  0.06000  Biso   1.000  O
  O104     1.0000 0.52240  0.14980  0.17800  Biso   1.000  O
  C101     1.0000 0.55320  0.34800  0.68700  Biso   1.000  C
  C102     1.0000 0.55410  0.39710  0.61000  Biso   1.000  C
  C103     1.0000 0.54950  0.42100  0.66100  Biso   1.000  C
  C104     1.0000 0.55190  0.36940  0.73100  Biso   1.000  C
  Mo14     1.0000 0.14527  0.57875  0.33237  Biso   1.000  Mo
  O105     1.0000 0.12280  0.56240  0.48520  Biso   1.000  O
  O106     1.0000 0.07490  0.63410  0.32830  Biso   1.000  O
  O107     1.0000 0.01560  0.77220  0.60540  Biso   1.000  O
  O108     1.0000 0.12930  0.69980  0.53300  Biso   1.000  O
  O109     1.0000 0.05950  0.65160  0.67100  Biso   1.000  O
  O110     1.0000 0.04990  0.76690  0.36920  Biso   1.000  O
  C105     1.0000 0.04200  0.88300  0.25900  Biso   1.000  C
  C106     1.0000 0.04200  0.93100  0.18100  Biso   1.000  C
  C107     1.0000 0.96000  0.88300  0.08100  Biso   1.000  C
  C108     1.0000 0.95900  0.83600  0.15800  Biso   1.000  C
  La14     1.0000 0.01557  0.67648  0.47062  Biso   1.000  La
  O111     1.0000 0.09580  0.67630  0.56000  Biso   1.000  O
  O112     1.0000 0.02240  0.64980  0.67800  Biso   1.000  O
  C109     1.0000 0.05320  0.84800  0.18700  Biso   1.000  C
  C110     1.0000 0.05410  0.89710  0.11000  Biso   1.000  C
  C111     1.0000 0.04950  0.92100  0.16100  Biso   1.000  C
  C112     1.0000 0.05190  0.86940  0.23100  Biso   1.000  C
  Mo15     1.0000 0.35473  0.92125  0.83237  Biso   1.000  Mo
  O113     1.0000 0.37720  0.93760  0.98520  Biso   1.000  O
  O114     1.0000 0.42510  0.86590  0.82830  Biso   1.000  O
  O115     1.0000 0.48440  0.72780  0.10540  Biso   1.000  O
  O116     1.0000 0.37070  0.80020  0.03300  Biso   1.000  O
  O117     1.0000 0.44050  0.84840  0.17100  Biso   1.000  O
  O118     1.0000 0.45010  0.73310  0.86920  Biso   1.000  O
  C113     1.0000 0.45800  0.61700  0.75900  Biso   1.000  C
  C114     1.0000 0.45800  0.56900  0.68100  Biso   1.000  C
  C115     1.0000 0.54000  0.61700  0.58100  Biso   1.000  C
  C116     1.0000 0.54100  0.66400  0.65800  Biso   1.000  C
  La15     1.0000 0.48443  0.82352  0.97062  Biso   1.000  La
  O119     1.0000 0.40420  0.82370  0.06000  Biso   1.000  O
  O120     1.0000 0.47760  0.85020  0.17800  Biso   1.000  O
  C117     1.0000 0.44680  0.65200  0.68700  Biso   1.000  C
  C118     1.0000 0.44590  0.60290  0.61000  Biso   1.000  C
  C119     1.0000 0.45050  0.57900  0.66100  Biso   1.000  C
  C120     1.0000 0.44810  0.63060  0.73100  Biso   1.000  C
  Mo16     1.0000 0.85473  0.42125  0.33237  Biso   1.000  Mo
  O121     1.0000 0.87720  0.43760  0.48520  Biso   1.000  O
  O122     1.0000 0.92510  0.36590  0.32830  Biso   1.000  O
  O123     1.0000 0.98440  0.22780  0.60540  Biso   1.000  O
  O124     1.0000 0.87070  0.30020  0.53300  Biso   1.000  O
  O125     1.0000 0.94050  0.34840  0.67100  Biso   1.000  O
  O126     1.0000 0.95010  0.23310  0.36920  Biso   1.000  O
  C121     1.0000 0.95800  0.11700  0.25900  Biso   1.000  C
  C122     1.0000 0.95800  0.06900  0.18100  Biso   1.000  C
  C123     1.0000 0.04000  0.11700  0.08100  Biso   1.000  C
  C124     1.0000 0.04100  0.16400  0.15800  Biso   1.000  C
  La16     1.0000 0.98443  0.32352  0.47062  Biso   1.000  La
  O127     1.0000 0.90420  0.32370  0.56000  Biso   1.000  O
  O128     1.0000 0.97760  0.35020  0.67800  Biso   1.000  O
  C125     1.0000 0.94680  0.15200  0.18700  Biso   1.000  C
  C126     1.0000 0.94590  0.10290  0.11000  Biso   1.000  C
  C127     1.0000 0.95050  0.07900  0.16100  Biso   1.000  C
  C128     1.0000 0.94810  0.13060  0.23100  Biso   1.000  C
  Mo17     1.0000 0.00000  0.55865  0.97075  Biso   1.000  Mo
  O129     1.0000 0.00000  0.68310  0.17660  Biso   1.000  O
  O130     1.0000 0.00000  0.55760  0.17450  Biso   1.000  O
  Mo18     1.0000 0.50000  0.05865  0.47075  Biso   1.000  Mo
  O131     1.0000 0.50000  0.18310  0.67660  Biso   1.000  O
  O132     1.0000 0.50000  0.05760  0.67450  Biso   1.000  O
  Mo19     1.0000 0.00000  0.44135  0.97075  Biso   1.000  Mo
  O133     1.0000 0.00000  0.31690  0.17660  Biso   1.000  O
  O134     1.0000 0.00000  0.44240  0.17450  Biso   1.000  O
  Mo20     1.0000 0.50000  0.94135  0.47075  Biso   1.000  Mo
  O135     1.0000 0.50000  0.81690  0.67660  Biso   1.000  O
  O136     1.0000 0.50000  0.94240  0.67450  Biso   1.000  O
  Mo21     1.0000 0.55865  0.00000  0.02925  Biso   1.000  Mo
  O137     1.0000 0.68310  0.00000  0.82340  Biso   1.000  O
  O138     1.0000 0.55760  0.00000  0.82550  Biso   1.000  O
  Mo22     1.0000 0.05865  0.50000  0.52925  Biso   1.000  Mo
  O139     1.0000 0.18310  0.50000  0.32340  Biso   1.000  O
  O140     1.0000 0.05760  0.50000  0.32550  Biso   1.000  O
  Mo23     1.0000 0.44135  0.00000  0.02925  Biso   1.000  Mo
  O141     1.0000 0.31690  0.00000  0.82340  Biso   1.000  O
  O142     1.0000 0.44240  0.00000  0.82550  Biso   1.000  O
  Mo24     1.0000 0.94135  0.50000  0.52925  Biso   1.000  Mo
  O143     1.0000 0.81690  0.50000  0.32340  Biso   1.000  O
  O144     1.0000 0.94240  0.50000  0.32550  Biso   1.000  O
  O145     1.0000 0.06590  0.50000  0.99370  Biso   1.000  O
  C129     1.0000 0.28540  0.50000  0.16800  Biso   1.000  C
  C130     1.0000 0.43080  0.50000  0.40740  Biso   1.000  C
  C131     1.0000 0.33560  0.50000  0.25280  Biso   1.000  C
  O146     1.0000 0.56590  0.00000  0.49370  Biso   1.000  O
  C132     1.0000 0.78540  0.00000  0.66800  Biso   1.000  C
  C133     1.0000 0.93080  0.00000  0.90740  Biso   1.000  C
  C134     1.0000 0.83560  0.00000  0.75280  Biso   1.000  C
  O147     1.0000 0.93410  0.50000  0.99370  Biso   1.000  O
  C135     1.0000 0.71460  0.50000  0.16800  Biso   1.000  C
  C136     1.0000 0.56920  0.50000  0.40740  Biso   1.000  C
  C137     1.0000 0.66440  0.50000  0.25280  Biso   1.000  C
  O148     1.0000 0.43410  0.00000  0.49370  Biso   1.000  O
  C138     1.0000 0.21460  0.00000  0.66800  Biso   1.000  C
  C139     1.0000 0.06920  0.00000  0.90740  Biso   1.000  C
  C140     1.0000 0.16440  0.00000  0.75280  Biso   1.000  C
  O149     1.0000 0.50000  0.93410  0.00630  Biso   1.000  O
  C141     1.0000 0.50000  0.71460  0.83200  Biso   1.000  C
  C142     1.0000 0.50000  0.56920  0.59260  Biso   1.000  C
  C143     1.0000 0.50000  0.66440  0.74720  Biso   1.000  C
  O150     1.0000 0.00000  0.43410  0.50630  Biso   1.000  O
  C144     1.0000 0.00000  0.21460  0.33200  Biso   1.000  C
  C145     1.0000 0.00000  0.06920  0.09260  Biso   1.000  C
  C146     1.0000 0.00000  0.16440  0.24720  Biso   1.000  C
  O151     1.0000 0.50000  0.06590  0.00630  Biso   1.000  O
  C147     1.0000 0.50000  0.28540  0.83200  Biso   1.000  C
  C148     1.0000 0.50000  0.43080  0.59260  Biso   1.000  C
  C149     1.0000 0.50000  0.33560  0.74720  Biso   1.000  C
  O152     1.0000 0.00000  0.56590  0.50630  Biso   1.000  O
  C150     1.0000 0.00000  0.78540  0.33200  Biso   1.000  C
  C151     1.0000 0.00000  0.93080  0.09260  Biso   1.000  C
  C152     1.0000 0.00000  0.83560  0.24720  Biso   1.000  C
  P1       1.0000 0.00000  0.50000  0.25000  Biso   1.000  P
  P2       1.0000 0.50000  0.00000  0.75000  Biso   1.000  P
  Si1      1.0000 0.50000  0.50000  0.50000  Biso   1.000  Si
  Si2      1.0000 0.00000  0.00000  0.00000  Biso   1.000  Si
