data_image0
_cell_length_a       24.529
_cell_length_b       9.3582
_cell_length_c       10.3822
_cell_angle_alpha    90
_cell_angle_beta     97.236
_cell_angle_gamma    90

_symmetry_space_group_name_H-M    "P 1"
_symmetry_int_tables_number       1

loop_
  _symmetry_equiv_pos_as_xyz
  'x, y, z'

loop_
  _atom_site_label
  _atom_site_occupancy
  _atom_site_fract_x
  _atom_site_fract_y
  _atom_site_fract_z
  _atom_site_thermal_displace_type
  _atom_site_B_iso_or_equiv
  _atom_site_type_symbol
  C1       1.0000 0.23282  0.29570  0.53680  Biso   1.000  C
  C2       1.0000 0.17809  0.32120  0.49290  Biso   1.000  C
  H1       1.0000 0.16240  0.28230  0.41450  Biso   1.000  H
  C3       1.0000 0.14690  0.40380  0.56490  Biso   1.000  C
  C4       1.0000 0.17180  0.46050  0.68020  Biso   1.000  C
  H2       1.0000 0.15190  0.51540  0.73250  Biso   1.000  H
  C5       1.0000 0.22720  0.43350  0.71640  Biso   1.000  C
  H3       1.0000 0.24420  0.47430  0.79280  Biso   1.000  H
  C6       1.0000 0.08699  0.43040  0.51980  Biso   1.000  C
  N1       1.0000 0.25749  0.35220  0.64740  Biso   1.000  N
  N2       1.0000 0.98410  0.18270  0.25400  Biso   1.000  N
  O1       1.0000 0.07093  0.40220  0.40460  Biso   1.000  O
  O2       1.0000 0.05825  0.47780  0.59860  Biso   1.000  O
  O3       1.0000 0.97110  0.24690  0.31840  Biso   1.000  O
  C7       1.0000 0.73282  0.79570  0.53680  Biso   1.000  C
  C8       1.0000 0.67809  0.82120  0.49290  Biso   1.000  C
  H4       1.0000 0.66240  0.78230  0.41450  Biso   1.000  H
  C9       1.0000 0.64690  0.90380  0.56490  Biso   1.000  C
  C10      1.0000 0.67180  0.96050  0.68020  Biso   1.000  C
  H5       1.0000 0.65190  0.01540  0.73250  Biso   1.000  H
  C11      1.0000 0.72720  0.93350  0.71640  Biso   1.000  C
  H6       1.0000 0.74420  0.97430  0.79280  Biso   1.000  H
  C12      1.0000 0.58699  0.93040  0.51980  Biso   1.000  C
  N3       1.0000 0.75749  0.85220  0.64740  Biso   1.000  N
  N4       1.0000 0.48410  0.68270  0.25400  Biso   1.000  N
  O4       1.0000 0.57093  0.90220  0.40460  Biso   1.000  O
  O5       1.0000 0.55825  0.97780  0.59860  Biso   1.000  O
  O6       1.0000 0.47110  0.74690  0.31840  Biso   1.000  O
  C13      1.0000 0.76718  0.29570  0.96320  Biso   1.000  C
  C14      1.0000 0.82191  0.32120  0.00710  Biso   1.000  C
  H7       1.0000 0.83760  0.28230  0.08550  Biso   1.000  H
  C15      1.0000 0.85310  0.40380  0.93510  Biso   1.000  C
  C16      1.0000 0.82820  0.46050  0.81980  Biso   1.000  C
  H8       1.0000 0.84810  0.51540  0.76750  Biso   1.000  H
  C17      1.0000 0.77280  0.43350  0.78360  Biso   1.000  C
  H9       1.0000 0.75580  0.47430  0.70720  Biso   1.000  H
  C18      1.0000 0.91301  0.43040  0.98020  Biso   1.000  C
  N5       1.0000 0.74251  0.35220  0.85260  Biso   1.000  N
  N6       1.0000 0.01590  0.18270  0.24600  Biso   1.000  N
  O7       1.0000 0.92907  0.40220  0.09540  Biso   1.000  O
  O8       1.0000 0.94175  0.47780  0.90140  Biso   1.000  O
  O9       1.0000 0.02890  0.24690  0.18160  Biso   1.000  O
  C19      1.0000 0.26718  0.79570  0.96320  Biso   1.000  C
  C20      1.0000 0.32191  0.82120  0.00710  Biso   1.000  C
  H10      1.0000 0.33760  0.78230  0.08550  Biso   1.000  H
  C21      1.0000 0.35310  0.90380  0.93510  Biso   1.000  C
  C22      1.0000 0.32820  0.96050  0.81980  Biso   1.000  C
  H11      1.0000 0.34810  0.01540  0.76750  Biso   1.000  H
  C23      1.0000 0.27280  0.93350  0.78360  Biso   1.000  C
  H12      1.0000 0.25580  0.97430  0.70720  Biso   1.000  H
  C24      1.0000 0.41301  0.93040  0.98020  Biso   1.000  C
  N7       1.0000 0.24251  0.85220  0.85260  Biso   1.000  N
  N8       1.0000 0.51590  0.68270  0.24600  Biso   1.000  N
  O10      1.0000 0.42907  0.90220  0.09540  Biso   1.000  O
  O11      1.0000 0.44175  0.97780  0.90140  Biso   1.000  O
  O12      1.0000 0.52890  0.74690  0.18160  Biso   1.000  O
  C25      1.0000 0.76718  0.70430  0.46320  Biso   1.000  C
  C26      1.0000 0.82191  0.67880  0.50710  Biso   1.000  C
  H13      1.0000 0.83760  0.71770  0.58550  Biso   1.000  H
  C27      1.0000 0.85310  0.59620  0.43510  Biso   1.000  C
  C28      1.0000 0.82820  0.53950  0.31980  Biso   1.000  C
  H14      1.0000 0.84810  0.48460  0.26750  Biso   1.000  H
  C29      1.0000 0.77280  0.56650  0.28360  Biso   1.000  C
  H15      1.0000 0.75580  0.52570  0.20720  Biso   1.000  H
  C30      1.0000 0.91301  0.56960  0.48020  Biso   1.000  C
  N9       1.0000 0.74251  0.64780  0.35260  Biso   1.000  N
  N10      1.0000 0.01590  0.81730  0.74600  Biso   1.000  N
  O13      1.0000 0.92907  0.59780  0.59540  Biso   1.000  O
  O14      1.0000 0.94175  0.52220  0.40140  Biso   1.000  O
  O15      1.0000 0.02890  0.75310  0.68160  Biso   1.000  O
  C31      1.0000 0.26718  0.20430  0.46320  Biso   1.000  C
  C32      1.0000 0.32191  0.17880  0.50710  Biso   1.000  C
  H16      1.0000 0.33760  0.21770  0.58550  Biso   1.000  H
  C33      1.0000 0.35310  0.09620  0.43510  Biso   1.000  C
  C34      1.0000 0.32820  0.03950  0.31980  Biso   1.000  C
  H17      1.0000 0.34810  0.98460  0.26750  Biso   1.000  H
  C35      1.0000 0.27280  0.06650  0.28360  Biso   1.000  C
  H18      1.0000 0.25580  0.02570  0.20720  Biso   1.000  H
  C36      1.0000 0.41301  0.06960  0.48020  Biso   1.000  C
  N11      1.0000 0.24251  0.14780  0.35260  Biso   1.000  N
  N12      1.0000 0.51590  0.31730  0.74600  Biso   1.000  N
  O16      1.0000 0.42907  0.09780  0.59540  Biso   1.000  O
  O17      1.0000 0.44175  0.02220  0.40140  Biso   1.000  O
  O18      1.0000 0.52890  0.25310  0.68160  Biso   1.000  O
  C37      1.0000 0.23282  0.70430  0.03680  Biso   1.000  C
  C38      1.0000 0.17809  0.67880  0.99290  Biso   1.000  C
  H19      1.0000 0.16240  0.71770  0.91450  Biso   1.000  H
  C39      1.0000 0.14690  0.59620  0.06490  Biso   1.000  C
  C40      1.0000 0.17180  0.53950  0.18020  Biso   1.000  C
  H20      1.0000 0.15190  0.48460  0.23250  Biso   1.000  H
  C41      1.0000 0.22720  0.56650  0.21640  Biso   1.000  C
  H21      1.0000 0.24420  0.52570  0.29280  Biso   1.000  H
  C42      1.0000 0.08699  0.56960  0.01980  Biso   1.000  C
  N13      1.0000 0.25749  0.64780  0.14740  Biso   1.000  N
  N14      1.0000 0.98410  0.81730  0.75400  Biso   1.000  N
  O19      1.0000 0.07093  0.59780  0.90460  Biso   1.000  O
  O20      1.0000 0.05825  0.52220  0.09860  Biso   1.000  O
  O21      1.0000 0.97110  0.75310  0.81840  Biso   1.000  O
  C43      1.0000 0.73282  0.20430  0.03680  Biso   1.000  C
  C44      1.0000 0.67809  0.17880  0.99290  Biso   1.000  C
  H22      1.0000 0.66240  0.21770  0.91450  Biso   1.000  H
  C45      1.0000 0.64690  0.09620  0.06490  Biso   1.000  C
  C46      1.0000 0.67180  0.03950  0.18020  Biso   1.000  C
  H23      1.0000 0.65190  0.98460  0.23250  Biso   1.000  H
  C47      1.0000 0.72720  0.06650  0.21640  Biso   1.000  C
  H24      1.0000 0.74420  0.02570  0.29280  Biso   1.000  H
  C48      1.0000 0.58699  0.06960  0.01980  Biso   1.000  C
  N15      1.0000 0.75749  0.14780  0.14740  Biso   1.000  N
  N16      1.0000 0.48410  0.31730  0.75400  Biso   1.000  N
  O22      1.0000 0.57093  0.09780  0.90460  Biso   1.000  O
  O23      1.0000 0.55825  0.02220  0.09860  Biso   1.000  O
  O24      1.0000 0.47110  0.25310  0.81840  Biso   1.000  O
  Gd1      1.0000 0.00000  0.48629  0.25000  Biso   1.000  Gd
  O25      1.0000 0.00000  0.04990  0.25000  Biso   1.000  O
  Gd2      1.0000 0.50000  0.98629  0.25000  Biso   1.000  Gd
  O26      1.0000 0.50000  0.54990  0.25000  Biso   1.000  O
  Gd3      1.0000 0.00000  0.51371  0.75000  Biso   1.000  Gd
  O27      1.0000 0.00000  0.95010  0.75000  Biso   1.000  O
  Gd4      1.0000 0.50000  0.01371  0.75000  Biso   1.000  Gd
  O28      1.0000 0.50000  0.45010  0.75000  Biso   1.000  O
