data_image0
_cell_length_a       20.096
_cell_length_b       23.088
_cell_length_c       14.616
_cell_angle_alpha    90
_cell_angle_beta     90
_cell_angle_gamma    90

_symmetry_space_group_name_H-M    "P 1"
_symmetry_int_tables_number       1

loop_
  _symmetry_equiv_pos_as_xyz
  'x, y, z'

loop_
  _atom_site_label
  _atom_site_occupancy
  _atom_site_fract_x
  _atom_site_fract_y
  _atom_site_fract_z
  _atom_site_thermal_displace_type
  _atom_site_B_iso_or_equiv
  _atom_site_type_symbol
  Co1      1.0000 0.41631  0.09138  0.32661  Biso   1.000  Co
  Co2      1.0000 0.41196  0.09195  0.08505  Biso   1.000  Co
  O1       1.0000 0.47085  0.07050  0.87740  Biso   1.000  O
  O2       1.0000 0.38163  0.10222  0.95109  Biso   1.000  O
  O3       1.0000 0.47555  0.07649  0.54530  Biso   1.000  O
  O4       1.0000 0.38797  0.10428  0.46406  Biso   1.000  O
  O5       1.0000 0.17282  0.12829  0.78197  Biso   1.000  O
  O6       1.0000 0.17454  0.13106  0.62845  Biso   1.000  O
  O7       1.0000 0.45632  0.07003  0.20365  Biso   1.000  O
  N1       1.0000 0.33817  0.91649  0.34820  Biso   1.000  N
  N2       1.0000 0.36568  0.00771  0.33350  Biso   1.000  N
  N3       1.0000 0.46357  0.74194  0.42310  Biso   1.000  N
  N4       1.0000 0.53789  0.67206  0.42600  Biso   1.000  N
  N5       1.0000 0.53770  0.24471  0.32810  Biso   1.000  N
  N6       1.0000 0.46284  0.17472  0.32230  Biso   1.000  N
  N7       1.0000 0.66457  0.41709  0.41190  Biso   1.000  N
  N8       1.0000 0.63745  0.50892  0.42250  Biso   1.000  N
  C1       1.0000 0.28180  0.76655  0.39540  Biso   1.000  C
  C2       1.0000 0.28157  0.82536  0.37530  Biso   1.000  C
  H1       1.0000 0.24150  0.84410  0.36400  Biso   1.000  H
  C3       1.0000 0.34057  0.85618  0.37190  Biso   1.000  C
  C4       1.0000 0.40132  0.82958  0.38770  Biso   1.000  C
  H2       1.0000 0.44090  0.85040  0.38470  Biso   1.000  H
  C5       1.0000 0.40134  0.77071  0.40810  Biso   1.000  C
  C6       1.0000 0.34257  0.73946  0.41280  Biso   1.000  C
  H3       1.0000 0.34360  0.70030  0.42770  Biso   1.000  H
  C7       1.0000 0.71885  0.26740  0.35900  Biso   1.000  C
  C8       1.0000 0.65795  0.24126  0.33880  Biso   1.000  C
  H4       1.0000 0.65650  0.20260  0.32090  Biso   1.000  H
  C9       1.0000 0.59996  0.27291  0.34570  Biso   1.000  C
  C10      1.0000 0.60041  0.33117  0.37070  Biso   1.000  C
  H5       1.0000 0.56100  0.35190  0.37670  Biso   1.000  H
  C11      1.0000 0.66174  0.35721  0.38630  Biso   1.000  C
  C12      1.0000 0.72043  0.32582  0.38110  Biso   1.000  C
  H6       1.0000 0.76090  0.34400  0.39240  Biso   1.000  H
  C13      1.0000 0.37737  0.10107  0.79050  Biso   1.000  C
  C14      1.0000 0.41048  0.09363  0.70910  Biso   1.000  C
  H7       1.0000 0.45490  0.08250  0.70970  Biso   1.000  H
  C15      1.0000 0.37865  0.10251  0.62560  Biso   1.000  C
  C16      1.0000 0.31146  0.11779  0.62460  Biso   1.000  C
  H8       1.0000 0.28980  0.12410  0.56920  Biso   1.000  H
  C17      1.0000 0.27679  0.12359  0.70670  Biso   1.000  C
  C18      1.0000 0.31015  0.11693  0.78950  Biso   1.000  C
  H9       1.0000 0.28770  0.12300  0.84430  Biso   1.000  H
  C19      1.0000 0.41264  0.09046  0.88100  Biso   1.000  C
  C20      1.0000 0.41601  0.09357  0.53730  Biso   1.000  C
  C21      1.0000 0.20171  0.12916  0.70570  Biso   1.000  C
  C22      1.0000 0.38439  0.95704  0.36270  Biso   1.000  C
  H10      1.0000 0.42520  0.94990  0.39040  Biso   1.000  H
  C23      1.0000 0.30287  0.99886  0.29730  Biso   1.000  C
  H11      1.0000 0.27660  0.02750  0.27100  Biso   1.000  H
  C24      1.0000 0.28544  0.94349  0.30540  Biso   1.000  C
  H12      1.0000 0.24590  0.92650  0.28620  Biso   1.000  H
  C25      1.0000 0.47638  0.68538  0.40550  Biso   1.000  C
  H13      1.0000 0.44550  0.65940  0.38180  Biso   1.000  H
  C26      1.0000 0.56610  0.72252  0.45840  Biso   1.000  C
  H14      1.0000 0.60970  0.72610  0.47880  Biso   1.000  H
  C27      1.0000 0.52120  0.76602  0.45630  Biso   1.000  C
  H15      1.0000 0.52790  0.80430  0.47370  Biso   1.000  H
  C28      1.0000 0.52491  0.18735  0.34170  Biso   1.000  C
  H16      1.0000 0.55620  0.16060  0.36210  Biso   1.000  H
  C29      1.0000 0.43435  0.22590  0.29470  Biso   1.000  C
  H17      1.0000 0.39040  0.23010  0.27600  Biso   1.000  H
  C30      1.0000 0.47961  0.26938  0.29880  Biso   1.000  C
  H18      1.0000 0.47260  0.30820  0.28450  Biso   1.000  H
  C31      1.0000 0.62008  0.45856  0.39090  Biso   1.000  C
  H19      1.0000 0.58140  0.45190  0.35760  Biso   1.000  H
  C32      1.0000 0.69740  0.50013  0.46570  Biso   1.000  C
  H20      1.0000 0.72210  0.52870  0.49510  Biso   1.000  H
  C33      1.0000 0.71510  0.44423  0.45930  Biso   1.000  C
  H21      1.0000 0.75360  0.42720  0.48210  Biso   1.000  H
  O8       1.0000 0.61300  0.06990  0.14310  Biso   1.000  O
  O9       1.0000 0.52230  0.05040  0.17900  Biso   1.000  O
  O10      1.0000 0.59510  0.07860  0.19340  Biso   1.000  O
  Co3      1.0000 0.08369  0.40862  0.32661  Biso   1.000  Co
  Co4      1.0000 0.08804  0.40805  0.08505  Biso   1.000  Co
  O11      1.0000 0.02915  0.42950  0.87740  Biso   1.000  O
  O12      1.0000 0.11837  0.39778  0.95109  Biso   1.000  O
  O13      1.0000 0.02445  0.42351  0.54530  Biso   1.000  O
  O14      1.0000 0.11203  0.39572  0.46406  Biso   1.000  O
  O15      1.0000 0.32718  0.37171  0.78197  Biso   1.000  O
  O16      1.0000 0.32546  0.36894  0.62845  Biso   1.000  O
  O17      1.0000 0.04368  0.42997  0.20365  Biso   1.000  O
  N9       1.0000 0.16183  0.58351  0.34820  Biso   1.000  N
  N10      1.0000 0.13432  0.49229  0.33350  Biso   1.000  N
  N11      1.0000 0.03643  0.75806  0.42310  Biso   1.000  N
  N12      1.0000 0.96211  0.82794  0.42600  Biso   1.000  N
  N13      1.0000 0.96230  0.25529  0.32810  Biso   1.000  N
  N14      1.0000 0.03716  0.32528  0.32230  Biso   1.000  N
  N15      1.0000 0.83543  0.08291  0.41190  Biso   1.000  N
  N16      1.0000 0.86255  0.99108  0.42250  Biso   1.000  N
  C34      1.0000 0.21820  0.73345  0.39540  Biso   1.000  C
  C35      1.0000 0.21843  0.67464  0.37530  Biso   1.000  C
  H22      1.0000 0.25850  0.65590  0.36400  Biso   1.000  H
  C36      1.0000 0.15943  0.64382  0.37190  Biso   1.000  C
  C37      1.0000 0.09868  0.67042  0.38770  Biso   1.000  C
  H23      1.0000 0.05910  0.64960  0.38470  Biso   1.000  H
  C38      1.0000 0.09866  0.72929  0.40810  Biso   1.000  C
  C39      1.0000 0.15743  0.76054  0.41280  Biso   1.000  C
  H24      1.0000 0.15640  0.79970  0.42770  Biso   1.000  H
  C40      1.0000 0.78115  0.23260  0.35900  Biso   1.000  C
  C41      1.0000 0.84205  0.25874  0.33880  Biso   1.000  C
  H25      1.0000 0.84350  0.29740  0.32090  Biso   1.000  H
  C42      1.0000 0.90004  0.22709  0.34570  Biso   1.000  C
  C43      1.0000 0.89959  0.16883  0.37070  Biso   1.000  C
  H26      1.0000 0.93900  0.14810  0.37670  Biso   1.000  H
  C44      1.0000 0.83826  0.14279  0.38630  Biso   1.000  C
  C45      1.0000 0.77957  0.17418  0.38110  Biso   1.000  C
  H27      1.0000 0.73910  0.15600  0.39240  Biso   1.000  H
  C46      1.0000 0.12263  0.39893  0.79050  Biso   1.000  C
  C47      1.0000 0.08952  0.40637  0.70910  Biso   1.000  C
  H28      1.0000 0.04510  0.41750  0.70970  Biso   1.000  H
  C48      1.0000 0.12135  0.39749  0.62560  Biso   1.000  C
  C49      1.0000 0.18854  0.38221  0.62460  Biso   1.000  C
  H29      1.0000 0.21020  0.37590  0.56920  Biso   1.000  H
  C50      1.0000 0.22321  0.37641  0.70670  Biso   1.000  C
  C51      1.0000 0.18985  0.38307  0.78950  Biso   1.000  C
  H30      1.0000 0.21230  0.37700  0.84430  Biso   1.000  H
  C52      1.0000 0.08736  0.40954  0.88100  Biso   1.000  C
  C53      1.0000 0.08399  0.40643  0.53730  Biso   1.000  C
  C54      1.0000 0.29829  0.37084  0.70570  Biso   1.000  C
  C55      1.0000 0.11561  0.54296  0.36270  Biso   1.000  C
  H31      1.0000 0.07480  0.55010  0.39040  Biso   1.000  H
  C56      1.0000 0.19713  0.50114  0.29730  Biso   1.000  C
  H32      1.0000 0.22340  0.47250  0.27100  Biso   1.000  H
  C57      1.0000 0.21456  0.55651  0.30540  Biso   1.000  C
  H33      1.0000 0.25410  0.57350  0.28620  Biso   1.000  H
  C58      1.0000 0.02362  0.81462  0.40550  Biso   1.000  C
  H34      1.0000 0.05450  0.84060  0.38180  Biso   1.000  H
  C59      1.0000 0.93390  0.77748  0.45840  Biso   1.000  C
  H35      1.0000 0.89030  0.77390  0.47880  Biso   1.000  H
  C60      1.0000 0.97880  0.73398  0.45630  Biso   1.000  C
  H36      1.0000 0.97210  0.69570  0.47370  Biso   1.000  H
  C61      1.0000 0.97509  0.31265  0.34170  Biso   1.000  C
  H37      1.0000 0.94380  0.33940  0.36210  Biso   1.000  H
  C62      1.0000 0.06565  0.27410  0.29470  Biso   1.000  C
  H38      1.0000 0.10960  0.26990  0.27600  Biso   1.000  H
  C63      1.0000 0.02039  0.23062  0.29880  Biso   1.000  C
  H39      1.0000 0.02740  0.19180  0.28450  Biso   1.000  H
  C64      1.0000 0.87992  0.04144  0.39090  Biso   1.000  C
  H40      1.0000 0.91860  0.04810  0.35760  Biso   1.000  H
  C65      1.0000 0.80260  0.99987  0.46570  Biso   1.000  C
  H41      1.0000 0.77790  0.97130  0.49510  Biso   1.000  H
  C66      1.0000 0.78490  0.05577  0.45930  Biso   1.000  C
  H42      1.0000 0.74640  0.07280  0.48210  Biso   1.000  H
  O18      1.0000 0.88700  0.43010  0.14310  Biso   1.000  O
  O19      1.0000 0.97770  0.44960  0.17900  Biso   1.000  O
  O20      1.0000 0.90490  0.42140  0.19340  Biso   1.000  O
  Co5      1.0000 0.58369  0.59138  0.17339  Biso   1.000  Co
  Co6      1.0000 0.58804  0.59195  0.41495  Biso   1.000  Co
  O21      1.0000 0.52915  0.57050  0.62260  Biso   1.000  O
  O22      1.0000 0.61837  0.60222  0.54891  Biso   1.000  O
  O23      1.0000 0.52445  0.57649  0.95470  Biso   1.000  O
  O24      1.0000 0.61203  0.60428  0.03594  Biso   1.000  O
  O25      1.0000 0.82718  0.62829  0.71803  Biso   1.000  O
  O26      1.0000 0.82546  0.63106  0.87155  Biso   1.000  O
  O27      1.0000 0.54368  0.57003  0.29635  Biso   1.000  O
  N17      1.0000 0.66183  0.41649  0.15180  Biso   1.000  N
  N18      1.0000 0.63432  0.50771  0.16650  Biso   1.000  N
  N19      1.0000 0.53643  0.24194  0.07690  Biso   1.000  N
  N20      1.0000 0.46211  0.17206  0.07400  Biso   1.000  N
  N21      1.0000 0.46230  0.74471  0.17190  Biso   1.000  N
  N22      1.0000 0.53716  0.67472  0.17770  Biso   1.000  N
  N23      1.0000 0.33543  0.91709  0.08810  Biso   1.000  N
  N24      1.0000 0.36255  0.00892  0.07750  Biso   1.000  N
  C67      1.0000 0.71820  0.26655  0.10460  Biso   1.000  C
  C68      1.0000 0.71843  0.32536  0.12470  Biso   1.000  C
  H43      1.0000 0.75850  0.34410  0.13600  Biso   1.000  H
  C69      1.0000 0.65943  0.35618  0.12810  Biso   1.000  C
  C70      1.0000 0.59868  0.32958  0.11230  Biso   1.000  C
  H44      1.0000 0.55910  0.35040  0.11530  Biso   1.000  H
  C71      1.0000 0.59866  0.27071  0.09190  Biso   1.000  C
  C72      1.0000 0.65743  0.23946  0.08720  Biso   1.000  C
  H45      1.0000 0.65640  0.20030  0.07230  Biso   1.000  H
  C73      1.0000 0.28115  0.76740  0.14100  Biso   1.000  C
  C74      1.0000 0.34205  0.74126  0.16120  Biso   1.000  C
  H46      1.0000 0.34350  0.70260  0.17910  Biso   1.000  H
  C75      1.0000 0.40004  0.77291  0.15430  Biso   1.000  C
  C76      1.0000 0.39959  0.83117  0.12930  Biso   1.000  C
  H47      1.0000 0.43900  0.85190  0.12330  Biso   1.000  H
  C77      1.0000 0.33826  0.85721  0.11370  Biso   1.000  C
  C78      1.0000 0.27957  0.82582  0.11890  Biso   1.000  C
  H48      1.0000 0.23910  0.84400  0.10760  Biso   1.000  H
  C79      1.0000 0.62263  0.60107  0.70950  Biso   1.000  C
  C80      1.0000 0.58952  0.59363  0.79090  Biso   1.000  C
  H49      1.0000 0.54510  0.58250  0.79030  Biso   1.000  H
  C81      1.0000 0.62135  0.60251  0.87440  Biso   1.000  C
  C82      1.0000 0.68854  0.61779  0.87540  Biso   1.000  C
  H50      1.0000 0.71020  0.62410  0.93080  Biso   1.000  H
  C83      1.0000 0.72321  0.62359  0.79330  Biso   1.000  C
  C84      1.0000 0.68985  0.61693  0.71050  Biso   1.000  C
  H51      1.0000 0.71230  0.62300  0.65570  Biso   1.000  H
  C85      1.0000 0.58736  0.59046  0.61900  Biso   1.000  C
  C86      1.0000 0.58399  0.59357  0.96270  Biso   1.000  C
  C87      1.0000 0.79829  0.62916  0.79430  Biso   1.000  C
  C88      1.0000 0.61561  0.45704  0.13730  Biso   1.000  C
  H52      1.0000 0.57480  0.44990  0.10960  Biso   1.000  H
  C89      1.0000 0.69713  0.49886  0.20270  Biso   1.000  C
  H53      1.0000 0.72340  0.52750  0.22900  Biso   1.000  H
  C90      1.0000 0.71456  0.44349  0.19460  Biso   1.000  C
  H54      1.0000 0.75410  0.42650  0.21380  Biso   1.000  H
  C91      1.0000 0.52362  0.18538  0.09450  Biso   1.000  C
  H55      1.0000 0.55450  0.15940  0.11820  Biso   1.000  H
  C92      1.0000 0.43390  0.22252  0.04160  Biso   1.000  C
  H56      1.0000 0.39030  0.22610  0.02120  Biso   1.000  H
  C93      1.0000 0.47880  0.26602  0.04370  Biso   1.000  C
  H57      1.0000 0.47210  0.30430  0.02630  Biso   1.000  H
  C94      1.0000 0.47509  0.68735  0.15830  Biso   1.000  C
  H58      1.0000 0.44380  0.66060  0.13790  Biso   1.000  H
  C95      1.0000 0.56565  0.72590  0.20530  Biso   1.000  C
  H59      1.0000 0.60960  0.73010  0.22400  Biso   1.000  H
  C96      1.0000 0.52039  0.76938  0.20120  Biso   1.000  C
  H60      1.0000 0.52740  0.80820  0.21550  Biso   1.000  H
  C97      1.0000 0.37992  0.95856  0.10910  Biso   1.000  C
  H61      1.0000 0.41860  0.95190  0.14240  Biso   1.000  H
  C98      1.0000 0.30260  0.00013  0.03430  Biso   1.000  C
  H62      1.0000 0.27790  0.02870  0.00490  Biso   1.000  H
  C99      1.0000 0.28490  0.94423  0.04070  Biso   1.000  C
  H63      1.0000 0.24640  0.92720  0.01790  Biso   1.000  H
  O28      1.0000 0.38700  0.56990  0.35690  Biso   1.000  O
  O29      1.0000 0.47770  0.55040  0.32100  Biso   1.000  O
  O30      1.0000 0.40490  0.57860  0.30660  Biso   1.000  O
  Co7      1.0000 0.91631  0.90862  0.17339  Biso   1.000  Co
  Co8      1.0000 0.91196  0.90805  0.41495  Biso   1.000  Co
  O31      1.0000 0.97085  0.92950  0.62260  Biso   1.000  O
  O32      1.0000 0.88163  0.89778  0.54891  Biso   1.000  O
  O33      1.0000 0.97555  0.92351  0.95470  Biso   1.000  O
  O34      1.0000 0.88797  0.89572  0.03594  Biso   1.000  O
  O35      1.0000 0.67282  0.87171  0.71803  Biso   1.000  O
  O36      1.0000 0.67454  0.86894  0.87155  Biso   1.000  O
  O37      1.0000 0.95632  0.92997  0.29635  Biso   1.000  O
  N25      1.0000 0.83817  0.08351  0.15180  Biso   1.000  N
  N26      1.0000 0.86568  0.99229  0.16650  Biso   1.000  N
  N27      1.0000 0.96357  0.25806  0.07690  Biso   1.000  N
  N28      1.0000 0.03789  0.32794  0.07400  Biso   1.000  N
  N29      1.0000 0.03770  0.75529  0.17190  Biso   1.000  N
  N30      1.0000 0.96284  0.82528  0.17770  Biso   1.000  N
  N31      1.0000 0.16457  0.58291  0.08810  Biso   1.000  N
  N32      1.0000 0.13745  0.49108  0.07750  Biso   1.000  N
  C100     1.0000 0.78180  0.23345  0.10460  Biso   1.000  C
  C101     1.0000 0.78157  0.17464  0.12470  Biso   1.000  C
  H64      1.0000 0.74150  0.15590  0.13600  Biso   1.000  H
  C102     1.0000 0.84057  0.14382  0.12810  Biso   1.000  C
  C103     1.0000 0.90132  0.17042  0.11230  Biso   1.000  C
  H65      1.0000 0.94090  0.14960  0.11530  Biso   1.000  H
  C104     1.0000 0.90134  0.22929  0.09190  Biso   1.000  C
  C105     1.0000 0.84257  0.26054  0.08720  Biso   1.000  C
  H66      1.0000 0.84360  0.29970  0.07230  Biso   1.000  H
  C106     1.0000 0.21885  0.73260  0.14100  Biso   1.000  C
  C107     1.0000 0.15795  0.75874  0.16120  Biso   1.000  C
  H67      1.0000 0.15650  0.79740  0.17910  Biso   1.000  H
  C108     1.0000 0.09996  0.72709  0.15430  Biso   1.000  C
  C109     1.0000 0.10041  0.66883  0.12930  Biso   1.000  C
  H68      1.0000 0.06100  0.64810  0.12330  Biso   1.000  H
  C110     1.0000 0.16174  0.64279  0.11370  Biso   1.000  C
  C111     1.0000 0.22043  0.67418  0.11890  Biso   1.000  C
  H69      1.0000 0.26090  0.65600  0.10760  Biso   1.000  H
  C112     1.0000 0.87737  0.89893  0.70950  Biso   1.000  C
  C113     1.0000 0.91048  0.90637  0.79090  Biso   1.000  C
  H70      1.0000 0.95490  0.91750  0.79030  Biso   1.000  H
  C114     1.0000 0.87865  0.89749  0.87440  Biso   1.000  C
  C115     1.0000 0.81146  0.88221  0.87540  Biso   1.000  C
  H71      1.0000 0.78980  0.87590  0.93080  Biso   1.000  H
  C116     1.0000 0.77679  0.87641  0.79330  Biso   1.000  C
  C117     1.0000 0.81015  0.88307  0.71050  Biso   1.000  C
  H72      1.0000 0.78770  0.87700  0.65570  Biso   1.000  H
  C118     1.0000 0.91264  0.90954  0.61900  Biso   1.000  C
  C119     1.0000 0.91601  0.90643  0.96270  Biso   1.000  C
  C120     1.0000 0.70171  0.87084  0.79430  Biso   1.000  C
  C121     1.0000 0.88439  0.04296  0.13730  Biso   1.000  C
  H73      1.0000 0.92520  0.05010  0.10960  Biso   1.000  H
  C122     1.0000 0.80287  0.00114  0.20270  Biso   1.000  C
  H74      1.0000 0.77660  0.97250  0.22900  Biso   1.000  H
  C123     1.0000 0.78544  0.05651  0.19460  Biso   1.000  C
  H75      1.0000 0.74590  0.07350  0.21380  Biso   1.000  H
  C124     1.0000 0.97638  0.31462  0.09450  Biso   1.000  C
  H76      1.0000 0.94550  0.34060  0.11820  Biso   1.000  H
  C125     1.0000 0.06610  0.27748  0.04160  Biso   1.000  C
  H77      1.0000 0.10970  0.27390  0.02120  Biso   1.000  H
  C126     1.0000 0.02120  0.23398  0.04370  Biso   1.000  C
  H78      1.0000 0.02790  0.19570  0.02630  Biso   1.000  H
  C127     1.0000 0.02491  0.81265  0.15830  Biso   1.000  C
  H79      1.0000 0.05620  0.83940  0.13790  Biso   1.000  H
  C128     1.0000 0.93435  0.77410  0.20530  Biso   1.000  C
  H80      1.0000 0.89040  0.76990  0.22400  Biso   1.000  H
  C129     1.0000 0.97961  0.73062  0.20120  Biso   1.000  C
  H81      1.0000 0.97260  0.69180  0.21550  Biso   1.000  H
  C130     1.0000 0.12008  0.54144  0.10910  Biso   1.000  C
  H82      1.0000 0.08140  0.54810  0.14240  Biso   1.000  H
  C131     1.0000 0.19740  0.49987  0.03430  Biso   1.000  C
  H83      1.0000 0.22210  0.47130  0.00490  Biso   1.000  H
  C132     1.0000 0.21510  0.55577  0.04070  Biso   1.000  C
  H84      1.0000 0.25360  0.57280  0.01790  Biso   1.000  H
  O38      1.0000 0.11300  0.93010  0.35690  Biso   1.000  O
  O39      1.0000 0.02230  0.94960  0.32100  Biso   1.000  O
  O40      1.0000 0.09510  0.92140  0.30660  Biso   1.000  O
  Co9      1.0000 0.58369  0.90862  0.67339  Biso   1.000  Co
  Co10     1.0000 0.58804  0.90805  0.91495  Biso   1.000  Co
  O41      1.0000 0.52915  0.92950  0.12260  Biso   1.000  O
  O42      1.0000 0.61837  0.89778  0.04891  Biso   1.000  O
  O43      1.0000 0.52445  0.92351  0.45470  Biso   1.000  O
  O44      1.0000 0.61203  0.89572  0.53594  Biso   1.000  O
  O45      1.0000 0.82718  0.87171  0.21803  Biso   1.000  O
  O46      1.0000 0.82546  0.86894  0.37155  Biso   1.000  O
  O47      1.0000 0.54368  0.92997  0.79635  Biso   1.000  O
  N33      1.0000 0.66183  0.08351  0.65180  Biso   1.000  N
  N34      1.0000 0.63432  0.99229  0.66650  Biso   1.000  N
  N35      1.0000 0.53643  0.25806  0.57690  Biso   1.000  N
  N36      1.0000 0.46211  0.32794  0.57400  Biso   1.000  N
  N37      1.0000 0.46230  0.75529  0.67190  Biso   1.000  N
  N38      1.0000 0.53716  0.82528  0.67770  Biso   1.000  N
  N39      1.0000 0.33543  0.58291  0.58810  Biso   1.000  N
  N40      1.0000 0.36255  0.49108  0.57750  Biso   1.000  N
  C133     1.0000 0.71820  0.23345  0.60460  Biso   1.000  C
  C134     1.0000 0.71843  0.17464  0.62470  Biso   1.000  C
  H85      1.0000 0.75850  0.15590  0.63600  Biso   1.000  H
  C135     1.0000 0.65943  0.14382  0.62810  Biso   1.000  C
  C136     1.0000 0.59868  0.17042  0.61230  Biso   1.000  C
  H86      1.0000 0.55910  0.14960  0.61530  Biso   1.000  H
  C137     1.0000 0.59866  0.22929  0.59190  Biso   1.000  C
  C138     1.0000 0.65743  0.26054  0.58720  Biso   1.000  C
  H87      1.0000 0.65640  0.29970  0.57230  Biso   1.000  H
  C139     1.0000 0.28115  0.73260  0.64100  Biso   1.000  C
  C140     1.0000 0.34205  0.75874  0.66120  Biso   1.000  C
  H88      1.0000 0.34350  0.79740  0.67910  Biso   1.000  H
  C141     1.0000 0.40004  0.72709  0.65430  Biso   1.000  C
  C142     1.0000 0.39959  0.66883  0.62930  Biso   1.000  C
  H89      1.0000 0.43900  0.64810  0.62330  Biso   1.000  H
  C143     1.0000 0.33826  0.64279  0.61370  Biso   1.000  C
  C144     1.0000 0.27957  0.67418  0.61890  Biso   1.000  C
  H90      1.0000 0.23910  0.65600  0.60760  Biso   1.000  H
  C145     1.0000 0.62263  0.89893  0.20950  Biso   1.000  C
  C146     1.0000 0.58952  0.90637  0.29090  Biso   1.000  C
  H91      1.0000 0.54510  0.91750  0.29030  Biso   1.000  H
  C147     1.0000 0.62135  0.89749  0.37440  Biso   1.000  C
  C148     1.0000 0.68854  0.88221  0.37540  Biso   1.000  C
  H92      1.0000 0.71020  0.87590  0.43080  Biso   1.000  H
  C149     1.0000 0.72321  0.87641  0.29330  Biso   1.000  C
  C150     1.0000 0.68985  0.88307  0.21050  Biso   1.000  C
  H93      1.0000 0.71230  0.87700  0.15570  Biso   1.000  H
  C151     1.0000 0.58736  0.90954  0.11900  Biso   1.000  C
  C152     1.0000 0.58399  0.90643  0.46270  Biso   1.000  C
  C153     1.0000 0.79829  0.87084  0.29430  Biso   1.000  C
  C154     1.0000 0.61561  0.04296  0.63730  Biso   1.000  C
  H94      1.0000 0.57480  0.05010  0.60960  Biso   1.000  H
  C155     1.0000 0.69713  0.00114  0.70270  Biso   1.000  C
  H95      1.0000 0.72340  0.97250  0.72900  Biso   1.000  H
  C156     1.0000 0.71456  0.05651  0.69460  Biso   1.000  C
  H96      1.0000 0.75410  0.07350  0.71380  Biso   1.000  H
  C157     1.0000 0.52362  0.31462  0.59450  Biso   1.000  C
  H97      1.0000 0.55450  0.34060  0.61820  Biso   1.000  H
  C158     1.0000 0.43390  0.27748  0.54160  Biso   1.000  C
  H98      1.0000 0.39030  0.27390  0.52120  Biso   1.000  H
  C159     1.0000 0.47880  0.23398  0.54370  Biso   1.000  C
  H99      1.0000 0.47210  0.19570  0.52630  Biso   1.000  H
  C160     1.0000 0.47509  0.81265  0.65830  Biso   1.000  C
  H100     1.0000 0.44380  0.83940  0.63790  Biso   1.000  H
  C161     1.0000 0.56565  0.77410  0.70530  Biso   1.000  C
  H101     1.0000 0.60960  0.76990  0.72400  Biso   1.000  H
  C162     1.0000 0.52039  0.73062  0.70120  Biso   1.000  C
  H102     1.0000 0.52740  0.69180  0.71550  Biso   1.000  H
  C163     1.0000 0.37992  0.54144  0.60910  Biso   1.000  C
  H103     1.0000 0.41860  0.54810  0.64240  Biso   1.000  H
  C164     1.0000 0.30260  0.49987  0.53430  Biso   1.000  C
  H104     1.0000 0.27790  0.47130  0.50490  Biso   1.000  H
  C165     1.0000 0.28490  0.55577  0.54070  Biso   1.000  C
  H105     1.0000 0.24640  0.57280  0.51790  Biso   1.000  H
  O48      1.0000 0.38700  0.93010  0.85690  Biso   1.000  O
  O49      1.0000 0.47770  0.94960  0.82100  Biso   1.000  O
  O50      1.0000 0.40490  0.92140  0.80660  Biso   1.000  O
  Co11     1.0000 0.91631  0.59138  0.67339  Biso   1.000  Co
  Co12     1.0000 0.91196  0.59195  0.91495  Biso   1.000  Co
  O51      1.0000 0.97085  0.57050  0.12260  Biso   1.000  O
  O52      1.0000 0.88163  0.60222  0.04891  Biso   1.000  O
  O53      1.0000 0.97555  0.57649  0.45470  Biso   1.000  O
  O54      1.0000 0.88797  0.60428  0.53594  Biso   1.000  O
  O55      1.0000 0.67282  0.62829  0.21803  Biso   1.000  O
  O56      1.0000 0.67454  0.63106  0.37155  Biso   1.000  O
  O57      1.0000 0.95632  0.57003  0.79635  Biso   1.000  O
  N41      1.0000 0.83817  0.41649  0.65180  Biso   1.000  N
  N42      1.0000 0.86568  0.50771  0.66650  Biso   1.000  N
  N43      1.0000 0.96357  0.24194  0.57690  Biso   1.000  N
  N44      1.0000 0.03789  0.17206  0.57400  Biso   1.000  N
  N45      1.0000 0.03770  0.74471  0.67190  Biso   1.000  N
  N46      1.0000 0.96284  0.67472  0.67770  Biso   1.000  N
  N47      1.0000 0.16457  0.91709  0.58810  Biso   1.000  N
  N48      1.0000 0.13745  0.00892  0.57750  Biso   1.000  N
  C166     1.0000 0.78180  0.26655  0.60460  Biso   1.000  C
  C167     1.0000 0.78157  0.32536  0.62470  Biso   1.000  C
  H106     1.0000 0.74150  0.34410  0.63600  Biso   1.000  H
  C168     1.0000 0.84057  0.35618  0.62810  Biso   1.000  C
  C169     1.0000 0.90132  0.32958  0.61230  Biso   1.000  C
  H107     1.0000 0.94090  0.35040  0.61530  Biso   1.000  H
  C170     1.0000 0.90134  0.27071  0.59190  Biso   1.000  C
  C171     1.0000 0.84257  0.23946  0.58720  Biso   1.000  C
  H108     1.0000 0.84360  0.20030  0.57230  Biso   1.000  H
  C172     1.0000 0.21885  0.76740  0.64100  Biso   1.000  C
  C173     1.0000 0.15795  0.74126  0.66120  Biso   1.000  C
  H109     1.0000 0.15650  0.70260  0.67910  Biso   1.000  H
  C174     1.0000 0.09996  0.77291  0.65430  Biso   1.000  C
  C175     1.0000 0.10041  0.83117  0.62930  Biso   1.000  C
  H110     1.0000 0.06100  0.85190  0.62330  Biso   1.000  H
  C176     1.0000 0.16174  0.85721  0.61370  Biso   1.000  C
  C177     1.0000 0.22043  0.82582  0.61890  Biso   1.000  C
  H111     1.0000 0.26090  0.84400  0.60760  Biso   1.000  H
  C178     1.0000 0.87737  0.60107  0.20950  Biso   1.000  C
  C179     1.0000 0.91048  0.59363  0.29090  Biso   1.000  C
  H112     1.0000 0.95490  0.58250  0.29030  Biso   1.000  H
  C180     1.0000 0.87865  0.60251  0.37440  Biso   1.000  C
  C181     1.0000 0.81146  0.61779  0.37540  Biso   1.000  C
  H113     1.0000 0.78980  0.62410  0.43080  Biso   1.000  H
  C182     1.0000 0.77679  0.62359  0.29330  Biso   1.000  C
  C183     1.0000 0.81015  0.61693  0.21050  Biso   1.000  C
  H114     1.0000 0.78770  0.62300  0.15570  Biso   1.000  H
  C184     1.0000 0.91264  0.59046  0.11900  Biso   1.000  C
  C185     1.0000 0.91601  0.59357  0.46270  Biso   1.000  C
  C186     1.0000 0.70171  0.62916  0.29430  Biso   1.000  C
  C187     1.0000 0.88439  0.45704  0.63730  Biso   1.000  C
  H115     1.0000 0.92520  0.44990  0.60960  Biso   1.000  H
  C188     1.0000 0.80287  0.49886  0.70270  Biso   1.000  C
  H116     1.0000 0.77660  0.52750  0.72900  Biso   1.000  H
  C189     1.0000 0.78544  0.44349  0.69460  Biso   1.000  C
  H117     1.0000 0.74590  0.42650  0.71380  Biso   1.000  H
  C190     1.0000 0.97638  0.18538  0.59450  Biso   1.000  C
  H118     1.0000 0.94550  0.15940  0.61820  Biso   1.000  H
  C191     1.0000 0.06610  0.22252  0.54160  Biso   1.000  C
  H119     1.0000 0.10970  0.22610  0.52120  Biso   1.000  H
  C192     1.0000 0.02120  0.26602  0.54370  Biso   1.000  C
  H120     1.0000 0.02790  0.30430  0.52630  Biso   1.000  H
  C193     1.0000 0.02491  0.68735  0.65830  Biso   1.000  C
  H121     1.0000 0.05620  0.66060  0.63790  Biso   1.000  H
  C194     1.0000 0.93435  0.72590  0.70530  Biso   1.000  C
  H122     1.0000 0.89040  0.73010  0.72400  Biso   1.000  H
  C195     1.0000 0.97961  0.76938  0.70120  Biso   1.000  C
  H123     1.0000 0.97260  0.80820  0.71550  Biso   1.000  H
  C196     1.0000 0.12008  0.95856  0.60910  Biso   1.000  C
  H124     1.0000 0.08140  0.95190  0.64240  Biso   1.000  H
  C197     1.0000 0.19740  0.00013  0.53430  Biso   1.000  C
  H125     1.0000 0.22210  0.02870  0.50490  Biso   1.000  H
  C198     1.0000 0.21510  0.94423  0.54070  Biso   1.000  C
  H126     1.0000 0.25360  0.92720  0.51790  Biso   1.000  H
  O58      1.0000 0.11300  0.56990  0.85690  Biso   1.000  O
  O59      1.0000 0.02230  0.55040  0.82100  Biso   1.000  O
  O60      1.0000 0.09510  0.57860  0.80660  Biso   1.000  O
  Co13     1.0000 0.41631  0.40862  0.82661  Biso   1.000  Co
  Co14     1.0000 0.41196  0.40805  0.58505  Biso   1.000  Co
  O61      1.0000 0.47085  0.42950  0.37740  Biso   1.000  O
  O62      1.0000 0.38163  0.39778  0.45109  Biso   1.000  O
  O63      1.0000 0.47555  0.42351  0.04530  Biso   1.000  O
  O64      1.0000 0.38797  0.39572  0.96406  Biso   1.000  O
  O65      1.0000 0.17282  0.37171  0.28197  Biso   1.000  O
  O66      1.0000 0.17454  0.36894  0.12845  Biso   1.000  O
  O67      1.0000 0.45632  0.42997  0.70365  Biso   1.000  O
  N49      1.0000 0.33817  0.58351  0.84820  Biso   1.000  N
  N50      1.0000 0.36568  0.49229  0.83350  Biso   1.000  N
  N51      1.0000 0.46357  0.75806  0.92310  Biso   1.000  N
  N52      1.0000 0.53789  0.82794  0.92600  Biso   1.000  N
  N53      1.0000 0.53770  0.25529  0.82810  Biso   1.000  N
  N54      1.0000 0.46284  0.32528  0.82230  Biso   1.000  N
  N55      1.0000 0.66457  0.08291  0.91190  Biso   1.000  N
  N56      1.0000 0.63745  0.99108  0.92250  Biso   1.000  N
  C199     1.0000 0.28180  0.73345  0.89540  Biso   1.000  C
  C200     1.0000 0.28157  0.67464  0.87530  Biso   1.000  C
  H127     1.0000 0.24150  0.65590  0.86400  Biso   1.000  H
  C201     1.0000 0.34057  0.64382  0.87190  Biso   1.000  C
  C202     1.0000 0.40132  0.67042  0.88770  Biso   1.000  C
  H128     1.0000 0.44090  0.64960  0.88470  Biso   1.000  H
  C203     1.0000 0.40134  0.72929  0.90810  Biso   1.000  C
  C204     1.0000 0.34257  0.76054  0.91280  Biso   1.000  C
  H129     1.0000 0.34360  0.79970  0.92770  Biso   1.000  H
  C205     1.0000 0.71885  0.23260  0.85900  Biso   1.000  C
  C206     1.0000 0.65795  0.25874  0.83880  Biso   1.000  C
  H130     1.0000 0.65650  0.29740  0.82090  Biso   1.000  H
  C207     1.0000 0.59996  0.22709  0.84570  Biso   1.000  C
  C208     1.0000 0.60041  0.16883  0.87070  Biso   1.000  C
  H131     1.0000 0.56100  0.14810  0.87670  Biso   1.000  H
  C209     1.0000 0.66174  0.14279  0.88630  Biso   1.000  C
  C210     1.0000 0.72043  0.17418  0.88110  Biso   1.000  C
  H132     1.0000 0.76090  0.15600  0.89240  Biso   1.000  H
  C211     1.0000 0.37737  0.39893  0.29050  Biso   1.000  C
  C212     1.0000 0.41048  0.40637  0.20910  Biso   1.000  C
  H133     1.0000 0.45490  0.41750  0.20970  Biso   1.000  H
  C213     1.0000 0.37865  0.39749  0.12560  Biso   1.000  C
  C214     1.0000 0.31146  0.38221  0.12460  Biso   1.000  C
  H134     1.0000 0.28980  0.37590  0.06920  Biso   1.000  H
  C215     1.0000 0.27679  0.37641  0.20670  Biso   1.000  C
  C216     1.0000 0.31015  0.38307  0.28950  Biso   1.000  C
  H135     1.0000 0.28770  0.37700  0.34430  Biso   1.000  H
  C217     1.0000 0.41264  0.40954  0.38100  Biso   1.000  C
  C218     1.0000 0.41601  0.40643  0.03730  Biso   1.000  C
  C219     1.0000 0.20171  0.37084  0.20570  Biso   1.000  C
  C220     1.0000 0.38439  0.54296  0.86270  Biso   1.000  C
  H136     1.0000 0.42520  0.55010  0.89040  Biso   1.000  H
  C221     1.0000 0.30287  0.50114  0.79730  Biso   1.000  C
  H137     1.0000 0.27660  0.47250  0.77100  Biso   1.000  H
  C222     1.0000 0.28544  0.55651  0.80540  Biso   1.000  C
  H138     1.0000 0.24590  0.57350  0.78620  Biso   1.000  H
  C223     1.0000 0.47638  0.81462  0.90550  Biso   1.000  C
  H139     1.0000 0.44550  0.84060  0.88180  Biso   1.000  H
  C224     1.0000 0.56610  0.77748  0.95840  Biso   1.000  C
  H140     1.0000 0.60970  0.77390  0.97880  Biso   1.000  H
  C225     1.0000 0.52120  0.73398  0.95630  Biso   1.000  C
  H141     1.0000 0.52790  0.69570  0.97370  Biso   1.000  H
  C226     1.0000 0.52491  0.31265  0.84170  Biso   1.000  C
  H142     1.0000 0.55620  0.33940  0.86210  Biso   1.000  H
  C227     1.0000 0.43435  0.27410  0.79470  Biso   1.000  C
  H143     1.0000 0.39040  0.26990  0.77600  Biso   1.000  H
  C228     1.0000 0.47961  0.23062  0.79880  Biso   1.000  C
  H144     1.0000 0.47260  0.19180  0.78450  Biso   1.000  H
  C229     1.0000 0.62008  0.04144  0.89090  Biso   1.000  C
  H145     1.0000 0.58140  0.04810  0.85760  Biso   1.000  H
  C230     1.0000 0.69740  0.99987  0.96570  Biso   1.000  C
  H146     1.0000 0.72210  0.97130  0.99510  Biso   1.000  H
  C231     1.0000 0.71510  0.05577  0.95930  Biso   1.000  C
  H147     1.0000 0.75360  0.07280  0.98210  Biso   1.000  H
  O68      1.0000 0.61300  0.43010  0.64310  Biso   1.000  O
  O69      1.0000 0.52230  0.44960  0.67900  Biso   1.000  O
  O70      1.0000 0.59510  0.42140  0.69340  Biso   1.000  O
  Co15     1.0000 0.08369  0.09138  0.82661  Biso   1.000  Co
  Co16     1.0000 0.08804  0.09195  0.58505  Biso   1.000  Co
  O71      1.0000 0.02915  0.07050  0.37740  Biso   1.000  O
  O72      1.0000 0.11837  0.10222  0.45109  Biso   1.000  O
  O73      1.0000 0.02445  0.07649  0.04530  Biso   1.000  O
  O74      1.0000 0.11203  0.10428  0.96406  Biso   1.000  O
  O75      1.0000 0.32718  0.12829  0.28197  Biso   1.000  O
  O76      1.0000 0.32546  0.13106  0.12845  Biso   1.000  O
  O77      1.0000 0.04368  0.07003  0.70365  Biso   1.000  O
  N57      1.0000 0.16183  0.91649  0.84820  Biso   1.000  N
  N58      1.0000 0.13432  0.00771  0.83350  Biso   1.000  N
  N59      1.0000 0.03643  0.74194  0.92310  Biso   1.000  N
  N60      1.0000 0.96211  0.67206  0.92600  Biso   1.000  N
  N61      1.0000 0.96230  0.24471  0.82810  Biso   1.000  N
  N62      1.0000 0.03716  0.17472  0.82230  Biso   1.000  N
  N63      1.0000 0.83543  0.41709  0.91190  Biso   1.000  N
  N64      1.0000 0.86255  0.50892  0.92250  Biso   1.000  N
  C232     1.0000 0.21820  0.76655  0.89540  Biso   1.000  C
  C233     1.0000 0.21843  0.82536  0.87530  Biso   1.000  C
  H148     1.0000 0.25850  0.84410  0.86400  Biso   1.000  H
  C234     1.0000 0.15943  0.85618  0.87190  Biso   1.000  C
  C235     1.0000 0.09868  0.82958  0.88770  Biso   1.000  C
  H149     1.0000 0.05910  0.85040  0.88470  Biso   1.000  H
  C236     1.0000 0.09866  0.77071  0.90810  Biso   1.000  C
  C237     1.0000 0.15743  0.73946  0.91280  Biso   1.000  C
  H150     1.0000 0.15640  0.70030  0.92770  Biso   1.000  H
  C238     1.0000 0.78115  0.26740  0.85900  Biso   1.000  C
  C239     1.0000 0.84205  0.24126  0.83880  Biso   1.000  C
  H151     1.0000 0.84350  0.20260  0.82090  Biso   1.000  H
  C240     1.0000 0.90004  0.27291  0.84570  Biso   1.000  C
  C241     1.0000 0.89959  0.33117  0.87070  Biso   1.000  C
  H152     1.0000 0.93900  0.35190  0.87670  Biso   1.000  H
  C242     1.0000 0.83826  0.35721  0.88630  Biso   1.000  C
  C243     1.0000 0.77957  0.32582  0.88110  Biso   1.000  C
  H153     1.0000 0.73910  0.34400  0.89240  Biso   1.000  H
  C244     1.0000 0.12263  0.10107  0.29050  Biso   1.000  C
  C245     1.0000 0.08952  0.09363  0.20910  Biso   1.000  C
  H154     1.0000 0.04510  0.08250  0.20970  Biso   1.000  H
  C246     1.0000 0.12135  0.10251  0.12560  Biso   1.000  C
  C247     1.0000 0.18854  0.11779  0.12460  Biso   1.000  C
  H155     1.0000 0.21020  0.12410  0.06920  Biso   1.000  H
  C248     1.0000 0.22321  0.12359  0.20670  Biso   1.000  C
  C249     1.0000 0.18985  0.11693  0.28950  Biso   1.000  C
  H156     1.0000 0.21230  0.12300  0.34430  Biso   1.000  H
  C250     1.0000 0.08736  0.09046  0.38100  Biso   1.000  C
  C251     1.0000 0.08399  0.09357  0.03730  Biso   1.000  C
  C252     1.0000 0.29829  0.12916  0.20570  Biso   1.000  C
  C253     1.0000 0.11561  0.95704  0.86270  Biso   1.000  C
  H157     1.0000 0.07480  0.94990  0.89040  Biso   1.000  H
  C254     1.0000 0.19713  0.99886  0.79730  Biso   1.000  C
  H158     1.0000 0.22340  0.02750  0.77100  Biso   1.000  H
  C255     1.0000 0.21456  0.94349  0.80540  Biso   1.000  C
  H159     1.0000 0.25410  0.92650  0.78620  Biso   1.000  H
  C256     1.0000 0.02362  0.68538  0.90550  Biso   1.000  C
  H160     1.0000 0.05450  0.65940  0.88180  Biso   1.000  H
  C257     1.0000 0.93390  0.72252  0.95840  Biso   1.000  C
  H161     1.0000 0.89030  0.72610  0.97880  Biso   1.000  H
  C258     1.0000 0.97880  0.76602  0.95630  Biso   1.000  C
  H162     1.0000 0.97210  0.80430  0.97370  Biso   1.000  H
  C259     1.0000 0.97509  0.18735  0.84170  Biso   1.000  C
  H163     1.0000 0.94380  0.16060  0.86210  Biso   1.000  H
  C260     1.0000 0.06565  0.22590  0.79470  Biso   1.000  C
  H164     1.0000 0.10960  0.23010  0.77600  Biso   1.000  H
  C261     1.0000 0.02039  0.26938  0.79880  Biso   1.000  C
  H165     1.0000 0.02740  0.30820  0.78450  Biso   1.000  H
  C262     1.0000 0.87992  0.45856  0.89090  Biso   1.000  C
  H166     1.0000 0.91860  0.45190  0.85760  Biso   1.000  H
  C263     1.0000 0.80260  0.50013  0.96570  Biso   1.000  C
  H167     1.0000 0.77790  0.52870  0.99510  Biso   1.000  H
  C264     1.0000 0.78490  0.44423  0.95930  Biso   1.000  C
  H168     1.0000 0.74640  0.42720  0.98210  Biso   1.000  H
  O78      1.0000 0.88700  0.06990  0.64310  Biso   1.000  O
  O79      1.0000 0.97770  0.05040  0.67900  Biso   1.000  O
  O80      1.0000 0.90490  0.07860  0.69340  Biso   1.000  O
