data_image0
_cell_length_a       17.1607
_cell_length_b       17.1607
_cell_length_c       17.1607
_cell_angle_alpha    90
_cell_angle_beta     90
_cell_angle_gamma    90

_symmetry_space_group_name_H-M    "P 1"
_symmetry_int_tables_number       1

loop_
  _symmetry_equiv_pos_as_xyz
  'x, y, z'

loop_
  _atom_site_label
  _atom_site_occupancy
  _atom_site_fract_x
  _atom_site_fract_y
  _atom_site_fract_z
  _atom_site_thermal_displace_type
  _atom_site_B_iso_or_equiv
  _atom_site_type_symbol
  H1       1.0000 0.36670  0.00550  0.56870  Biso   1.000  H
  H2       1.0000 0.38700  0.97700  0.59700  Biso   1.000  H
  H3       1.0000 0.63330  0.99450  0.56870  Biso   1.000  H
  H4       1.0000 0.61300  0.02300  0.59700  Biso   1.000  H
  H5       1.0000 0.63330  0.00550  0.43130  Biso   1.000  H
  H6       1.0000 0.61300  0.97700  0.40300  Biso   1.000  H
  H7       1.0000 0.36670  0.99450  0.43130  Biso   1.000  H
  H8       1.0000 0.38700  0.02300  0.40300  Biso   1.000  H
  H9       1.0000 0.56870  0.36670  0.00550  Biso   1.000  H
  H10      1.0000 0.59700  0.38700  0.97700  Biso   1.000  H
  H11      1.0000 0.56870  0.63330  0.99450  Biso   1.000  H
  H12      1.0000 0.59700  0.61300  0.02300  Biso   1.000  H
  H13      1.0000 0.43130  0.63330  0.00550  Biso   1.000  H
  H14      1.0000 0.40300  0.61300  0.97700  Biso   1.000  H
  H15      1.0000 0.43130  0.36670  0.99450  Biso   1.000  H
  H16      1.0000 0.40300  0.38700  0.02300  Biso   1.000  H
  H17      1.0000 0.00550  0.56870  0.36670  Biso   1.000  H
  H18      1.0000 0.97700  0.59700  0.38700  Biso   1.000  H
  H19      1.0000 0.99450  0.56870  0.63330  Biso   1.000  H
  H20      1.0000 0.02300  0.59700  0.61300  Biso   1.000  H
  H21      1.0000 0.00550  0.43130  0.63330  Biso   1.000  H
  H22      1.0000 0.97700  0.40300  0.61300  Biso   1.000  H
  H23      1.0000 0.99450  0.43130  0.36670  Biso   1.000  H
  H24      1.0000 0.02300  0.40300  0.38700  Biso   1.000  H
  H25      1.0000 0.00550  0.36670  0.56870  Biso   1.000  H
  H26      1.0000 0.97700  0.38700  0.59700  Biso   1.000  H
  H27      1.0000 0.99450  0.63330  0.56870  Biso   1.000  H
  H28      1.0000 0.02300  0.61300  0.59700  Biso   1.000  H
  H29      1.0000 0.00550  0.63330  0.43130  Biso   1.000  H
  H30      1.0000 0.97700  0.61300  0.40300  Biso   1.000  H
  H31      1.0000 0.99450  0.36670  0.43130  Biso   1.000  H
  H32      1.0000 0.02300  0.38700  0.40300  Biso   1.000  H
  H33      1.0000 0.36670  0.56870  0.00550  Biso   1.000  H
  H34      1.0000 0.38700  0.59700  0.97700  Biso   1.000  H
  H35      1.0000 0.63330  0.56870  0.99450  Biso   1.000  H
  H36      1.0000 0.61300  0.59700  0.02300  Biso   1.000  H
  H37      1.0000 0.63330  0.43130  0.00550  Biso   1.000  H
  H38      1.0000 0.61300  0.40300  0.97700  Biso   1.000  H
  H39      1.0000 0.36670  0.43130  0.99450  Biso   1.000  H
  H40      1.0000 0.38700  0.40300  0.02300  Biso   1.000  H
  H41      1.0000 0.56870  0.00550  0.36670  Biso   1.000  H
  H42      1.0000 0.59700  0.97700  0.38700  Biso   1.000  H
  H43      1.0000 0.56870  0.99450  0.63330  Biso   1.000  H
  H44      1.0000 0.59700  0.02300  0.61300  Biso   1.000  H
  H45      1.0000 0.43130  0.00550  0.63330  Biso   1.000  H
  H46      1.0000 0.40300  0.97700  0.61300  Biso   1.000  H
  H47      1.0000 0.43130  0.99450  0.36670  Biso   1.000  H
  H48      1.0000 0.40300  0.02300  0.38700  Biso   1.000  H
  Zn1      1.0000 0.56551  0.43449  0.43449  Biso   1.000  Zn
  Zn2      1.0000 0.43449  0.56551  0.43449  Biso   1.000  Zn
  Zn3      1.0000 0.43449  0.43449  0.56551  Biso   1.000  Zn
  Zn4      1.0000 0.56551  0.56551  0.56551  Biso   1.000  Zn
  O1       1.0000 0.54697  0.32469  0.45303  Biso   1.000  O
  C1       1.0000 0.44900  0.16780  0.55100  Biso   1.000  C
  H49      1.0000 0.41300  0.20500  0.58700  Biso   1.000  H
  C2       1.0000 0.45090  0.08460  0.54910  Biso   1.000  C
  H50      1.0000 0.36710  0.07050  0.63290  Biso   1.000  H
  C3       1.0000 0.39960  0.04110  0.60040  Biso   1.000  C
  O2       1.0000 0.45303  0.67531  0.45303  Biso   1.000  O
  C4       1.0000 0.55100  0.83220  0.55100  Biso   1.000  C
  H51      1.0000 0.58700  0.79500  0.58700  Biso   1.000  H
  C5       1.0000 0.54910  0.91540  0.54910  Biso   1.000  C
  H52      1.0000 0.63290  0.92950  0.63290  Biso   1.000  H
  C6       1.0000 0.60040  0.95890  0.60040  Biso   1.000  C
  O3       1.0000 0.45303  0.32469  0.54697  Biso   1.000  O
  C7       1.0000 0.55100  0.16780  0.44900  Biso   1.000  C
  H53      1.0000 0.58700  0.20500  0.41300  Biso   1.000  H
  C8       1.0000 0.54910  0.08460  0.45090  Biso   1.000  C
  H54      1.0000 0.63290  0.07050  0.36710  Biso   1.000  H
  C9       1.0000 0.60040  0.04110  0.39960  Biso   1.000  C
  O4       1.0000 0.54697  0.67531  0.54697  Biso   1.000  O
  C10      1.0000 0.44900  0.83220  0.44900  Biso   1.000  C
  H55      1.0000 0.41300  0.79500  0.41300  Biso   1.000  H
  C11      1.0000 0.45090  0.91540  0.45090  Biso   1.000  C
  H56      1.0000 0.36710  0.92950  0.36710  Biso   1.000  H
  C12      1.0000 0.39960  0.95890  0.39960  Biso   1.000  C
  O5       1.0000 0.45303  0.54697  0.32469  Biso   1.000  O
  C13      1.0000 0.55100  0.44900  0.16780  Biso   1.000  C
  H57      1.0000 0.58700  0.41300  0.20500  Biso   1.000  H
  C14      1.0000 0.54910  0.45090  0.08460  Biso   1.000  C
  H58      1.0000 0.63290  0.36710  0.07050  Biso   1.000  H
  C15      1.0000 0.60040  0.39960  0.04110  Biso   1.000  C
  O6       1.0000 0.45303  0.45303  0.67531  Biso   1.000  O
  C16      1.0000 0.55100  0.55100  0.83220  Biso   1.000  C
  H59      1.0000 0.58700  0.58700  0.79500  Biso   1.000  H
  C17      1.0000 0.54910  0.54910  0.91540  Biso   1.000  C
  H60      1.0000 0.63290  0.63290  0.92950  Biso   1.000  H
  C18      1.0000 0.60040  0.60040  0.95890  Biso   1.000  C
  O7       1.0000 0.54697  0.45303  0.32469  Biso   1.000  O
  C19      1.0000 0.44900  0.55100  0.16780  Biso   1.000  C
  H61      1.0000 0.41300  0.58700  0.20500  Biso   1.000  H
  C20      1.0000 0.45090  0.54910  0.08460  Biso   1.000  C
  H62      1.0000 0.36710  0.63290  0.07050  Biso   1.000  H
  C21      1.0000 0.39960  0.60040  0.04110  Biso   1.000  C
  O8       1.0000 0.54697  0.54697  0.67531  Biso   1.000  O
  C22      1.0000 0.44900  0.44900  0.83220  Biso   1.000  C
  H63      1.0000 0.41300  0.41300  0.79500  Biso   1.000  H
  C23      1.0000 0.45090  0.45090  0.91540  Biso   1.000  C
  H64      1.0000 0.36710  0.36710  0.92950  Biso   1.000  H
  C24      1.0000 0.39960  0.39960  0.95890  Biso   1.000  C
  O9       1.0000 0.32469  0.45303  0.54697  Biso   1.000  O
  C25      1.0000 0.16780  0.55100  0.44900  Biso   1.000  C
  H65      1.0000 0.20500  0.58700  0.41300  Biso   1.000  H
  C26      1.0000 0.08460  0.54910  0.45090  Biso   1.000  C
  H66      1.0000 0.07050  0.63290  0.36710  Biso   1.000  H
  C27      1.0000 0.04110  0.60040  0.39960  Biso   1.000  C
  O10      1.0000 0.67531  0.45303  0.45303  Biso   1.000  O
  C28      1.0000 0.83220  0.55100  0.55100  Biso   1.000  C
  H67      1.0000 0.79500  0.58700  0.58700  Biso   1.000  H
  C29      1.0000 0.91540  0.54910  0.54910  Biso   1.000  C
  H68      1.0000 0.92950  0.63290  0.63290  Biso   1.000  H
  C30      1.0000 0.95890  0.60040  0.60040  Biso   1.000  C
  O11      1.0000 0.32469  0.54697  0.45303  Biso   1.000  O
  C31      1.0000 0.16780  0.44900  0.55100  Biso   1.000  C
  H69      1.0000 0.20500  0.41300  0.58700  Biso   1.000  H
  C32      1.0000 0.08460  0.45090  0.54910  Biso   1.000  C
  H70      1.0000 0.07050  0.36710  0.63290  Biso   1.000  H
  C33      1.0000 0.04110  0.39960  0.60040  Biso   1.000  C
  O12      1.0000 0.67531  0.54697  0.54697  Biso   1.000  O
  C34      1.0000 0.83220  0.44900  0.44900  Biso   1.000  C
  H71      1.0000 0.79500  0.41300  0.41300  Biso   1.000  H
  C35      1.0000 0.91540  0.45090  0.45090  Biso   1.000  C
  H72      1.0000 0.92950  0.36710  0.36710  Biso   1.000  H
  C36      1.0000 0.95890  0.39960  0.39960  Biso   1.000  C
  O13      1.0000 0.50000  0.50000  0.50000  Biso   1.000  O
  C37      1.0000 0.50000  0.28850  0.50000  Biso   1.000  C
  C38      1.0000 0.50000  0.20600  0.50000  Biso   1.000  C
  C39      1.0000 0.50000  0.04360  0.50000  Biso   1.000  C
  C40      1.0000 0.50000  0.71150  0.50000  Biso   1.000  C
  C41      1.0000 0.50000  0.79400  0.50000  Biso   1.000  C
  C42      1.0000 0.50000  0.95640  0.50000  Biso   1.000  C
  C43      1.0000 0.50000  0.50000  0.28850  Biso   1.000  C
  C44      1.0000 0.50000  0.50000  0.20600  Biso   1.000  C
  C45      1.0000 0.50000  0.50000  0.04360  Biso   1.000  C
  C46      1.0000 0.50000  0.50000  0.71150  Biso   1.000  C
  C47      1.0000 0.50000  0.50000  0.79400  Biso   1.000  C
  C48      1.0000 0.50000  0.50000  0.95640  Biso   1.000  C
  C49      1.0000 0.28850  0.50000  0.50000  Biso   1.000  C
  C50      1.0000 0.20600  0.50000  0.50000  Biso   1.000  C
  C51      1.0000 0.04360  0.50000  0.50000  Biso   1.000  C
  C52      1.0000 0.71150  0.50000  0.50000  Biso   1.000  C
  C53      1.0000 0.79400  0.50000  0.50000  Biso   1.000  C
  C54      1.0000 0.95640  0.50000  0.50000  Biso   1.000  C
