data_image0
_cell_length_a       18.798
_cell_length_b       18.798
_cell_length_c       18.798
_cell_angle_alpha    90
_cell_angle_beta     90
_cell_angle_gamma    90

_symmetry_space_group_name_H-M    "P 1"
_symmetry_int_tables_number       1

loop_
  _symmetry_equiv_pos_as_xyz
  'x, y, z'

loop_
  _atom_site_label
  _atom_site_occupancy
  _atom_site_fract_x
  _atom_site_fract_y
  _atom_site_fract_z
  _atom_site_thermal_displace_type
  _atom_site_B_iso_or_equiv
  _atom_site_type_symbol
  Cd1      1.0000 0.50000  0.25000  0.00000  Biso   1.000  Cd
  Cd2      1.0000 0.50000  0.75000  0.00000  Biso   1.000  Cd
  Cd3      1.0000 0.00000  0.50000  0.25000  Biso   1.000  Cd
  Cd4      1.0000 0.00000  0.50000  0.75000  Biso   1.000  Cd
  Cd5      1.0000 0.25000  0.00000  0.50000  Biso   1.000  Cd
  Cd6      1.0000 0.75000  0.00000  0.50000  Biso   1.000  Cd
  Cd7      1.0000 0.25000  0.50000  0.00000  Biso   1.000  Cd
  Cd8      1.0000 0.75000  0.50000  0.00000  Biso   1.000  Cd
  Cd9      1.0000 0.50000  0.00000  0.75000  Biso   1.000  Cd
  Cd10     1.0000 0.50000  0.00000  0.25000  Biso   1.000  Cd
  Cd11     1.0000 0.00000  0.25000  0.50000  Biso   1.000  Cd
  Cd12     1.0000 0.00000  0.75000  0.50000  Biso   1.000  Cd
  Cd13     1.0000 0.68858  0.00000  0.00000  Biso   1.000  Cd
  O1       1.0000 0.56860  0.00000  0.00000  Biso   1.000  O
  Cd14     1.0000 0.64690  0.00000  0.00000  Biso   1.000  Cd
  Cd15     1.0000 0.18858  0.50000  0.50000  Biso   1.000  Cd
  O2       1.0000 0.06860  0.50000  0.50000  Biso   1.000  O
  Cd16     1.0000 0.14690  0.50000  0.50000  Biso   1.000  Cd
  Cd17     1.0000 0.31142  0.00000  0.00000  Biso   1.000  Cd
  O3       1.0000 0.43140  0.00000  0.00000  Biso   1.000  O
  Cd18     1.0000 0.35310  0.00000  0.00000  Biso   1.000  Cd
  Cd19     1.0000 0.81142  0.50000  0.50000  Biso   1.000  Cd
  O4       1.0000 0.93140  0.50000  0.50000  Biso   1.000  O
  Cd20     1.0000 0.85310  0.50000  0.50000  Biso   1.000  Cd
  Cd21     1.0000 0.00000  0.68858  0.00000  Biso   1.000  Cd
  O5       1.0000 0.00000  0.56860  0.00000  Biso   1.000  O
  Cd22     1.0000 0.00000  0.64690  0.00000  Biso   1.000  Cd
  Cd23     1.0000 0.50000  0.18858  0.50000  Biso   1.000  Cd
  O6       1.0000 0.50000  0.06860  0.50000  Biso   1.000  O
  Cd24     1.0000 0.50000  0.14690  0.50000  Biso   1.000  Cd
  Cd25     1.0000 0.00000  0.31142  0.00000  Biso   1.000  Cd
  O7       1.0000 0.00000  0.43140  0.00000  Biso   1.000  O
  Cd26     1.0000 0.00000  0.35310  0.00000  Biso   1.000  Cd
  Cd27     1.0000 0.50000  0.81142  0.50000  Biso   1.000  Cd
  O8       1.0000 0.50000  0.93140  0.50000  Biso   1.000  O
  Cd28     1.0000 0.50000  0.85310  0.50000  Biso   1.000  Cd
  Cd29     1.0000 0.00000  0.00000  0.68858  Biso   1.000  Cd
  O9       1.0000 0.00000  0.00000  0.56860  Biso   1.000  O
  Cd30     1.0000 0.00000  0.00000  0.64690  Biso   1.000  Cd
  Cd31     1.0000 0.50000  0.50000  0.18858  Biso   1.000  Cd
  O10      1.0000 0.50000  0.50000  0.06860  Biso   1.000  O
  Cd32     1.0000 0.50000  0.50000  0.14690  Biso   1.000  Cd
  Cd33     1.0000 0.00000  0.00000  0.31142  Biso   1.000  Cd
  O11      1.0000 0.00000  0.00000  0.43140  Biso   1.000  O
  Cd34     1.0000 0.00000  0.00000  0.35310  Biso   1.000  Cd
  Cd35     1.0000 0.50000  0.50000  0.81142  Biso   1.000  Cd
  O12      1.0000 0.50000  0.50000  0.93140  Biso   1.000  O
  Cd36     1.0000 0.50000  0.50000  0.85310  Biso   1.000  Cd
  N1       1.0000 0.62270  0.28790  0.00000  Biso   1.000  N
  C1       1.0000 0.67250  0.23830  0.00000  Biso   1.000  C
  C2       1.0000 0.64730  0.16170  0.00000  Biso   1.000  C
  O13      1.0000 0.58230  0.15020  0.00000  Biso   1.000  O
  O14      1.0000 0.69610  0.11680  0.00000  Biso   1.000  O
  N2       1.0000 0.12270  0.78790  0.50000  Biso   1.000  N
  C3       1.0000 0.17250  0.73830  0.50000  Biso   1.000  C
  C4       1.0000 0.14730  0.66170  0.50000  Biso   1.000  C
  O15      1.0000 0.08230  0.65020  0.50000  Biso   1.000  O
  O16      1.0000 0.19610  0.61680  0.50000  Biso   1.000  O
  N3       1.0000 0.37730  0.71210  0.00000  Biso   1.000  N
  C5       1.0000 0.32750  0.76170  0.00000  Biso   1.000  C
  C6       1.0000 0.35270  0.83830  0.00000  Biso   1.000  C
  O17      1.0000 0.41770  0.84980  0.00000  Biso   1.000  O
  O18      1.0000 0.30390  0.88320  0.00000  Biso   1.000  O
  N4       1.0000 0.87730  0.21210  0.50000  Biso   1.000  N
  C7       1.0000 0.82750  0.26170  0.50000  Biso   1.000  C
  C8       1.0000 0.85270  0.33830  0.50000  Biso   1.000  C
  O19      1.0000 0.91770  0.34980  0.50000  Biso   1.000  O
  O20      1.0000 0.80390  0.38320  0.50000  Biso   1.000  O
  N5       1.0000 0.37730  0.28790  0.00000  Biso   1.000  N
  C9       1.0000 0.32750  0.23830  0.00000  Biso   1.000  C
  C10      1.0000 0.35270  0.16170  0.00000  Biso   1.000  C
  O21      1.0000 0.41770  0.15020  0.00000  Biso   1.000  O
  O22      1.0000 0.30390  0.11680  0.00000  Biso   1.000  O
  N6       1.0000 0.87730  0.78790  0.50000  Biso   1.000  N
  C11      1.0000 0.82750  0.73830  0.50000  Biso   1.000  C
  C12      1.0000 0.85270  0.66170  0.50000  Biso   1.000  C
  O23      1.0000 0.91770  0.65020  0.50000  Biso   1.000  O
  O24      1.0000 0.80390  0.61680  0.50000  Biso   1.000  O
  N7       1.0000 0.62270  0.71210  0.00000  Biso   1.000  N
  C13      1.0000 0.67250  0.76170  0.00000  Biso   1.000  C
  C14      1.0000 0.64730  0.83830  0.00000  Biso   1.000  C
  O25      1.0000 0.58230  0.84980  0.00000  Biso   1.000  O
  O26      1.0000 0.69610  0.88320  0.00000  Biso   1.000  O
  N8       1.0000 0.12270  0.21210  0.50000  Biso   1.000  N
  C15      1.0000 0.17250  0.26170  0.50000  Biso   1.000  C
  C16      1.0000 0.14730  0.33830  0.50000  Biso   1.000  C
  O27      1.0000 0.08230  0.34980  0.50000  Biso   1.000  O
  O28      1.0000 0.19610  0.38320  0.50000  Biso   1.000  O
  N9       1.0000 0.00000  0.62270  0.28790  Biso   1.000  N
  C17      1.0000 0.00000  0.67250  0.23830  Biso   1.000  C
  C18      1.0000 0.00000  0.64730  0.16170  Biso   1.000  C
  O29      1.0000 0.00000  0.58230  0.15020  Biso   1.000  O
  O30      1.0000 0.00000  0.69610  0.11680  Biso   1.000  O
  N10      1.0000 0.50000  0.12270  0.78790  Biso   1.000  N
  C19      1.0000 0.50000  0.17250  0.73830  Biso   1.000  C
  C20      1.0000 0.50000  0.14730  0.66170  Biso   1.000  C
  O31      1.0000 0.50000  0.08230  0.65020  Biso   1.000  O
  O32      1.0000 0.50000  0.19610  0.61680  Biso   1.000  O
  N11      1.0000 0.00000  0.37730  0.71210  Biso   1.000  N
  C21      1.0000 0.00000  0.32750  0.76170  Biso   1.000  C
  C22      1.0000 0.00000  0.35270  0.83830  Biso   1.000  C
  O33      1.0000 0.00000  0.41770  0.84980  Biso   1.000  O
  O34      1.0000 0.00000  0.30390  0.88320  Biso   1.000  O
  N12      1.0000 0.50000  0.87730  0.21210  Biso   1.000  N
  C23      1.0000 0.50000  0.82750  0.26170  Biso   1.000  C
  C24      1.0000 0.50000  0.85270  0.33830  Biso   1.000  C
  O35      1.0000 0.50000  0.91770  0.34980  Biso   1.000  O
  O36      1.0000 0.50000  0.80390  0.38320  Biso   1.000  O
  N13      1.0000 0.00000  0.37730  0.28790  Biso   1.000  N
  C25      1.0000 0.00000  0.32750  0.23830  Biso   1.000  C
  C26      1.0000 0.00000  0.35270  0.16170  Biso   1.000  C
  O37      1.0000 0.00000  0.41770  0.15020  Biso   1.000  O
  O38      1.0000 0.00000  0.30390  0.11680  Biso   1.000  O
  N14      1.0000 0.50000  0.87730  0.78790  Biso   1.000  N
  C27      1.0000 0.50000  0.82750  0.73830  Biso   1.000  C
  C28      1.0000 0.50000  0.85270  0.66170  Biso   1.000  C
  O39      1.0000 0.50000  0.91770  0.65020  Biso   1.000  O
  O40      1.0000 0.50000  0.80390  0.61680  Biso   1.000  O
  N15      1.0000 0.00000  0.62270  0.71210  Biso   1.000  N
  C29      1.0000 0.00000  0.67250  0.76170  Biso   1.000  C
  C30      1.0000 0.00000  0.64730  0.83830  Biso   1.000  C
  O41      1.0000 0.00000  0.58230  0.84980  Biso   1.000  O
  O42      1.0000 0.00000  0.69610  0.88320  Biso   1.000  O
  N16      1.0000 0.50000  0.12270  0.21210  Biso   1.000  N
  C31      1.0000 0.50000  0.17250  0.26170  Biso   1.000  C
  C32      1.0000 0.50000  0.14730  0.33830  Biso   1.000  C
  O43      1.0000 0.50000  0.08230  0.34980  Biso   1.000  O
  O44      1.0000 0.50000  0.19610  0.38320  Biso   1.000  O
  N17      1.0000 0.28790  0.00000  0.62270  Biso   1.000  N
  C33      1.0000 0.23830  0.00000  0.67250  Biso   1.000  C
  C34      1.0000 0.16170  0.00000  0.64730  Biso   1.000  C
  O45      1.0000 0.15020  0.00000  0.58230  Biso   1.000  O
  O46      1.0000 0.11680  0.00000  0.69610  Biso   1.000  O
  N18      1.0000 0.78790  0.50000  0.12270  Biso   1.000  N
  C35      1.0000 0.73830  0.50000  0.17250  Biso   1.000  C
  C36      1.0000 0.66170  0.50000  0.14730  Biso   1.000  C
  O47      1.0000 0.65020  0.50000  0.08230  Biso   1.000  O
  O48      1.0000 0.61680  0.50000  0.19610  Biso   1.000  O
  N19      1.0000 0.71210  0.00000  0.37730  Biso   1.000  N
  C37      1.0000 0.76170  0.00000  0.32750  Biso   1.000  C
  C38      1.0000 0.83830  0.00000  0.35270  Biso   1.000  C
  O49      1.0000 0.84980  0.00000  0.41770  Biso   1.000  O
  O50      1.0000 0.88320  0.00000  0.30390  Biso   1.000  O
  N20      1.0000 0.21210  0.50000  0.87730  Biso   1.000  N
  C39      1.0000 0.26170  0.50000  0.82750  Biso   1.000  C
  C40      1.0000 0.33830  0.50000  0.85270  Biso   1.000  C
  O51      1.0000 0.34980  0.50000  0.91770  Biso   1.000  O
  O52      1.0000 0.38320  0.50000  0.80390  Biso   1.000  O
  N21      1.0000 0.28790  0.00000  0.37730  Biso   1.000  N
  C41      1.0000 0.23830  0.00000  0.32750  Biso   1.000  C
  C42      1.0000 0.16170  0.00000  0.35270  Biso   1.000  C
  O53      1.0000 0.15020  0.00000  0.41770  Biso   1.000  O
  O54      1.0000 0.11680  0.00000  0.30390  Biso   1.000  O
  N22      1.0000 0.78790  0.50000  0.87730  Biso   1.000  N
  C43      1.0000 0.73830  0.50000  0.82750  Biso   1.000  C
  C44      1.0000 0.66170  0.50000  0.85270  Biso   1.000  C
  O55      1.0000 0.65020  0.50000  0.91770  Biso   1.000  O
  O56      1.0000 0.61680  0.50000  0.80390  Biso   1.000  O
  N23      1.0000 0.71210  0.00000  0.62270  Biso   1.000  N
  C45      1.0000 0.76170  0.00000  0.67250  Biso   1.000  C
  C46      1.0000 0.83830  0.00000  0.64730  Biso   1.000  C
  O57      1.0000 0.84980  0.00000  0.58230  Biso   1.000  O
  O58      1.0000 0.88320  0.00000  0.69610  Biso   1.000  O
  N24      1.0000 0.21210  0.50000  0.12270  Biso   1.000  N
  C47      1.0000 0.26170  0.50000  0.17250  Biso   1.000  C
  C48      1.0000 0.33830  0.50000  0.14730  Biso   1.000  C
  O59      1.0000 0.34980  0.50000  0.08230  Biso   1.000  O
  O60      1.0000 0.38320  0.50000  0.19610  Biso   1.000  O
  N25      1.0000 0.28790  0.62270  0.00000  Biso   1.000  N
  C49      1.0000 0.23830  0.67250  0.00000  Biso   1.000  C
  C50      1.0000 0.16170  0.64730  0.00000  Biso   1.000  C
  O61      1.0000 0.15020  0.58230  0.00000  Biso   1.000  O
  O62      1.0000 0.11680  0.69610  0.00000  Biso   1.000  O
  N26      1.0000 0.78790  0.12270  0.50000  Biso   1.000  N
  C51      1.0000 0.73830  0.17250  0.50000  Biso   1.000  C
  C52      1.0000 0.66170  0.14730  0.50000  Biso   1.000  C
  O63      1.0000 0.65020  0.08230  0.50000  Biso   1.000  O
  O64      1.0000 0.61680  0.19610  0.50000  Biso   1.000  O
  N27      1.0000 0.71210  0.37730  0.00000  Biso   1.000  N
  C53      1.0000 0.76170  0.32750  0.00000  Biso   1.000  C
  C54      1.0000 0.83830  0.35270  0.00000  Biso   1.000  C
  O65      1.0000 0.84980  0.41770  0.00000  Biso   1.000  O
  O66      1.0000 0.88320  0.30390  0.00000  Biso   1.000  O
  N28      1.0000 0.21210  0.87730  0.50000  Biso   1.000  N
  C55      1.0000 0.26170  0.82750  0.50000  Biso   1.000  C
  C56      1.0000 0.33830  0.85270  0.50000  Biso   1.000  C
  O67      1.0000 0.34980  0.91770  0.50000  Biso   1.000  O
  O68      1.0000 0.38320  0.80390  0.50000  Biso   1.000  O
  N29      1.0000 0.28790  0.37730  0.00000  Biso   1.000  N
  C57      1.0000 0.23830  0.32750  0.00000  Biso   1.000  C
  C58      1.0000 0.16170  0.35270  0.00000  Biso   1.000  C
  O69      1.0000 0.15020  0.41770  0.00000  Biso   1.000  O
  O70      1.0000 0.11680  0.30390  0.00000  Biso   1.000  O
  N30      1.0000 0.78790  0.87730  0.50000  Biso   1.000  N
  C59      1.0000 0.73830  0.82750  0.50000  Biso   1.000  C
  C60      1.0000 0.66170  0.85270  0.50000  Biso   1.000  C
  O71      1.0000 0.65020  0.91770  0.50000  Biso   1.000  O
  O72      1.0000 0.61680  0.80390  0.50000  Biso   1.000  O
  N31      1.0000 0.71210  0.62270  0.00000  Biso   1.000  N
  C61      1.0000 0.76170  0.67250  0.00000  Biso   1.000  C
  C62      1.0000 0.83830  0.64730  0.00000  Biso   1.000  C
  O73      1.0000 0.84980  0.58230  0.00000  Biso   1.000  O
  O74      1.0000 0.88320  0.69610  0.00000  Biso   1.000  O
  N32      1.0000 0.21210  0.12270  0.50000  Biso   1.000  N
  C63      1.0000 0.26170  0.17250  0.50000  Biso   1.000  C
  C64      1.0000 0.33830  0.14730  0.50000  Biso   1.000  C
  O75      1.0000 0.34980  0.08230  0.50000  Biso   1.000  O
  O76      1.0000 0.38320  0.19610  0.50000  Biso   1.000  O
  N33      1.0000 0.62270  0.00000  0.71210  Biso   1.000  N
  C65      1.0000 0.67250  0.00000  0.76170  Biso   1.000  C
  C66      1.0000 0.64730  0.00000  0.83830  Biso   1.000  C
  O77      1.0000 0.58230  0.00000  0.84980  Biso   1.000  O
  O78      1.0000 0.69610  0.00000  0.88320  Biso   1.000  O
  N34      1.0000 0.12270  0.50000  0.21210  Biso   1.000  N
  C67      1.0000 0.17250  0.50000  0.26170  Biso   1.000  C
  C68      1.0000 0.14730  0.50000  0.33830  Biso   1.000  C
  O79      1.0000 0.08230  0.50000  0.34980  Biso   1.000  O
  O80      1.0000 0.19610  0.50000  0.38320  Biso   1.000  O
  N35      1.0000 0.37730  0.00000  0.28790  Biso   1.000  N
  C69      1.0000 0.32750  0.00000  0.23830  Biso   1.000  C
  C70      1.0000 0.35270  0.00000  0.16170  Biso   1.000  C
  O81      1.0000 0.41770  0.00000  0.15020  Biso   1.000  O
  O82      1.0000 0.30390  0.00000  0.11680  Biso   1.000  O
  N36      1.0000 0.87730  0.50000  0.78790  Biso   1.000  N
  C71      1.0000 0.82750  0.50000  0.73830  Biso   1.000  C
  C72      1.0000 0.85270  0.50000  0.66170  Biso   1.000  C
  O83      1.0000 0.91770  0.50000  0.65020  Biso   1.000  O
  O84      1.0000 0.80390  0.50000  0.61680  Biso   1.000  O
  N37      1.0000 0.37730  0.00000  0.71210  Biso   1.000  N
  C73      1.0000 0.32750  0.00000  0.76170  Biso   1.000  C
  C74      1.0000 0.35270  0.00000  0.83830  Biso   1.000  C
  O85      1.0000 0.41770  0.00000  0.84980  Biso   1.000  O
  O86      1.0000 0.30390  0.00000  0.88320  Biso   1.000  O
  N38      1.0000 0.87730  0.50000  0.21210  Biso   1.000  N
  C75      1.0000 0.82750  0.50000  0.26170  Biso   1.000  C
  C76      1.0000 0.85270  0.50000  0.33830  Biso   1.000  C
  O87      1.0000 0.91770  0.50000  0.34980  Biso   1.000  O
  O88      1.0000 0.80390  0.50000  0.38320  Biso   1.000  O
  N39      1.0000 0.62270  0.00000  0.28790  Biso   1.000  N
  C77      1.0000 0.67250  0.00000  0.23830  Biso   1.000  C
  C78      1.0000 0.64730  0.00000  0.16170  Biso   1.000  C
  O89      1.0000 0.58230  0.00000  0.15020  Biso   1.000  O
  O90      1.0000 0.69610  0.00000  0.11680  Biso   1.000  O
  N40      1.0000 0.12270  0.50000  0.78790  Biso   1.000  N
  C79      1.0000 0.17250  0.50000  0.73830  Biso   1.000  C
  C80      1.0000 0.14730  0.50000  0.66170  Biso   1.000  C
  O91      1.0000 0.08230  0.50000  0.65020  Biso   1.000  O
  O92      1.0000 0.19610  0.50000  0.61680  Biso   1.000  O
  N41      1.0000 0.00000  0.28790  0.37730  Biso   1.000  N
  C81      1.0000 0.00000  0.23830  0.32750  Biso   1.000  C
  C82      1.0000 0.00000  0.16170  0.35270  Biso   1.000  C
  O93      1.0000 0.00000  0.15020  0.41770  Biso   1.000  O
  O94      1.0000 0.00000  0.11680  0.30390  Biso   1.000  O
  N42      1.0000 0.50000  0.78790  0.87730  Biso   1.000  N
  C83      1.0000 0.50000  0.73830  0.82750  Biso   1.000  C
  C84      1.0000 0.50000  0.66170  0.85270  Biso   1.000  C
  O95      1.0000 0.50000  0.65020  0.91770  Biso   1.000  O
  O96      1.0000 0.50000  0.61680  0.80390  Biso   1.000  O
  N43      1.0000 0.00000  0.71210  0.62270  Biso   1.000  N
  C85      1.0000 0.00000  0.76170  0.67250  Biso   1.000  C
  C86      1.0000 0.00000  0.83830  0.64730  Biso   1.000  C
  O97      1.0000 0.00000  0.84980  0.58230  Biso   1.000  O
  O98      1.0000 0.00000  0.88320  0.69610  Biso   1.000  O
  N44      1.0000 0.50000  0.21210  0.12270  Biso   1.000  N
  C87      1.0000 0.50000  0.26170  0.17250  Biso   1.000  C
  C88      1.0000 0.50000  0.33830  0.14730  Biso   1.000  C
  O99      1.0000 0.50000  0.34980  0.08230  Biso   1.000  O
  O100     1.0000 0.50000  0.38320  0.19610  Biso   1.000  O
  N45      1.0000 0.00000  0.28790  0.62270  Biso   1.000  N
  C89      1.0000 0.00000  0.23830  0.67250  Biso   1.000  C
  C90      1.0000 0.00000  0.16170  0.64730  Biso   1.000  C
  O101     1.0000 0.00000  0.15020  0.58230  Biso   1.000  O
  O102     1.0000 0.00000  0.11680  0.69610  Biso   1.000  O
  N46      1.0000 0.50000  0.78790  0.12270  Biso   1.000  N
  C91      1.0000 0.50000  0.73830  0.17250  Biso   1.000  C
  C92      1.0000 0.50000  0.66170  0.14730  Biso   1.000  C
  O103     1.0000 0.50000  0.65020  0.08230  Biso   1.000  O
  O104     1.0000 0.50000  0.61680  0.19610  Biso   1.000  O
  N47      1.0000 0.00000  0.71210  0.37730  Biso   1.000  N
  C93      1.0000 0.00000  0.76170  0.32750  Biso   1.000  C
  C94      1.0000 0.00000  0.83830  0.35270  Biso   1.000  C
  O105     1.0000 0.00000  0.84980  0.41770  Biso   1.000  O
  O106     1.0000 0.00000  0.88320  0.30390  Biso   1.000  O
  N48      1.0000 0.50000  0.21210  0.87730  Biso   1.000  N
  C95      1.0000 0.50000  0.26170  0.82750  Biso   1.000  C
  C96      1.0000 0.50000  0.33830  0.85270  Biso   1.000  C
  O107     1.0000 0.50000  0.34980  0.91770  Biso   1.000  O
  O108     1.0000 0.50000  0.38320  0.80390  Biso   1.000  O
  C97      1.0000 0.64490  0.35510  0.00000  Biso   1.000  C
  H1       1.0000 0.60990  0.39010  0.00000  Biso   1.000  H
  C98      1.0000 0.74360  0.25640  0.00000  Biso   1.000  C
  H2       1.0000 0.77860  0.22140  0.00000  Biso   1.000  H
  C99      1.0000 0.14490  0.85510  0.50000  Biso   1.000  C
  H3       1.0000 0.10990  0.89010  0.50000  Biso   1.000  H
  C100     1.0000 0.24360  0.75640  0.50000  Biso   1.000  C
  H4       1.0000 0.27860  0.72140  0.50000  Biso   1.000  H
  C101     1.0000 0.35510  0.64490  0.00000  Biso   1.000  C
  H5       1.0000 0.39010  0.60990  0.00000  Biso   1.000  H
  C102     1.0000 0.25640  0.74360  0.00000  Biso   1.000  C
  H6       1.0000 0.22140  0.77860  0.00000  Biso   1.000  H
  C103     1.0000 0.85510  0.14490  0.50000  Biso   1.000  C
  H7       1.0000 0.89010  0.10990  0.50000  Biso   1.000  H
  C104     1.0000 0.75640  0.24360  0.50000  Biso   1.000  C
  H8       1.0000 0.72140  0.27860  0.50000  Biso   1.000  H
  C105     1.0000 0.35510  0.35510  0.00000  Biso   1.000  C
  H9       1.0000 0.39010  0.39010  0.00000  Biso   1.000  H
  C106     1.0000 0.25640  0.25640  0.00000  Biso   1.000  C
  H10      1.0000 0.22140  0.22140  0.00000  Biso   1.000  H
  C107     1.0000 0.85510  0.85510  0.50000  Biso   1.000  C
  H11      1.0000 0.89010  0.89010  0.50000  Biso   1.000  H
  C108     1.0000 0.75640  0.75640  0.50000  Biso   1.000  C
  H12      1.0000 0.72140  0.72140  0.50000  Biso   1.000  H
  C109     1.0000 0.64490  0.64490  0.00000  Biso   1.000  C
  H13      1.0000 0.60990  0.60990  0.00000  Biso   1.000  H
  C110     1.0000 0.74360  0.74360  0.00000  Biso   1.000  C
  H14      1.0000 0.77860  0.77860  0.00000  Biso   1.000  H
  C111     1.0000 0.14490  0.14490  0.50000  Biso   1.000  C
  H15      1.0000 0.10990  0.10990  0.50000  Biso   1.000  H
  C112     1.0000 0.24360  0.24360  0.50000  Biso   1.000  C
  H16      1.0000 0.27860  0.27860  0.50000  Biso   1.000  H
  C113     1.0000 0.00000  0.64490  0.35510  Biso   1.000  C
  H17      1.0000 0.00000  0.60990  0.39010  Biso   1.000  H
  C114     1.0000 0.00000  0.74360  0.25640  Biso   1.000  C
  H18      1.0000 0.00000  0.77860  0.22140  Biso   1.000  H
  C115     1.0000 0.50000  0.14490  0.85510  Biso   1.000  C
  H19      1.0000 0.50000  0.10990  0.89010  Biso   1.000  H
  C116     1.0000 0.50000  0.24360  0.75640  Biso   1.000  C
  H20      1.0000 0.50000  0.27860  0.72140  Biso   1.000  H
  C117     1.0000 0.00000  0.35510  0.64490  Biso   1.000  C
  H21      1.0000 0.00000  0.39010  0.60990  Biso   1.000  H
  C118     1.0000 0.00000  0.25640  0.74360  Biso   1.000  C
  H22      1.0000 0.00000  0.22140  0.77860  Biso   1.000  H
  C119     1.0000 0.50000  0.85510  0.14490  Biso   1.000  C
  H23      1.0000 0.50000  0.89010  0.10990  Biso   1.000  H
  C120     1.0000 0.50000  0.75640  0.24360  Biso   1.000  C
  H24      1.0000 0.50000  0.72140  0.27860  Biso   1.000  H
  C121     1.0000 0.00000  0.35510  0.35510  Biso   1.000  C
  H25      1.0000 0.00000  0.39010  0.39010  Biso   1.000  H
  C122     1.0000 0.00000  0.25640  0.25640  Biso   1.000  C
  H26      1.0000 0.00000  0.22140  0.22140  Biso   1.000  H
  C123     1.0000 0.50000  0.85510  0.85510  Biso   1.000  C
  H27      1.0000 0.50000  0.89010  0.89010  Biso   1.000  H
  C124     1.0000 0.50000  0.75640  0.75640  Biso   1.000  C
  H28      1.0000 0.50000  0.72140  0.72140  Biso   1.000  H
  C125     1.0000 0.00000  0.64490  0.64490  Biso   1.000  C
  H29      1.0000 0.00000  0.60990  0.60990  Biso   1.000  H
  C126     1.0000 0.00000  0.74360  0.74360  Biso   1.000  C
  H30      1.0000 0.00000  0.77860  0.77860  Biso   1.000  H
  C127     1.0000 0.50000  0.14490  0.14490  Biso   1.000  C
  H31      1.0000 0.50000  0.10990  0.10990  Biso   1.000  H
  C128     1.0000 0.50000  0.24360  0.24360  Biso   1.000  C
  H32      1.0000 0.50000  0.27860  0.27860  Biso   1.000  H
  C129     1.0000 0.35510  0.00000  0.64490  Biso   1.000  C
  H33      1.0000 0.39010  0.00000  0.60990  Biso   1.000  H
  C130     1.0000 0.25640  0.00000  0.74360  Biso   1.000  C
  H34      1.0000 0.22140  0.00000  0.77860  Biso   1.000  H
  C131     1.0000 0.85510  0.50000  0.14490  Biso   1.000  C
  H35      1.0000 0.89010  0.50000  0.10990  Biso   1.000  H
  C132     1.0000 0.75640  0.50000  0.24360  Biso   1.000  C
  H36      1.0000 0.72140  0.50000  0.27860  Biso   1.000  H
  C133     1.0000 0.64490  0.00000  0.35510  Biso   1.000  C
  H37      1.0000 0.60990  0.00000  0.39010  Biso   1.000  H
  C134     1.0000 0.74360  0.00000  0.25640  Biso   1.000  C
  H38      1.0000 0.77860  0.00000  0.22140  Biso   1.000  H
  C135     1.0000 0.14490  0.50000  0.85510  Biso   1.000  C
  H39      1.0000 0.10990  0.50000  0.89010  Biso   1.000  H
  C136     1.0000 0.24360  0.50000  0.75640  Biso   1.000  C
  H40      1.0000 0.27860  0.50000  0.72140  Biso   1.000  H
  C137     1.0000 0.35510  0.00000  0.35510  Biso   1.000  C
  H41      1.0000 0.39010  0.00000  0.39010  Biso   1.000  H
  C138     1.0000 0.25640  0.00000  0.25640  Biso   1.000  C
  H42      1.0000 0.22140  0.00000  0.22140  Biso   1.000  H
  C139     1.0000 0.85510  0.50000  0.85510  Biso   1.000  C
  H43      1.0000 0.89010  0.50000  0.89010  Biso   1.000  H
  C140     1.0000 0.75640  0.50000  0.75640  Biso   1.000  C
  H44      1.0000 0.72140  0.50000  0.72140  Biso   1.000  H
  C141     1.0000 0.64490  0.00000  0.64490  Biso   1.000  C
  H45      1.0000 0.60990  0.00000  0.60990  Biso   1.000  H
  C142     1.0000 0.74360  0.00000  0.74360  Biso   1.000  C
  H46      1.0000 0.77860  0.00000  0.77860  Biso   1.000  H
  C143     1.0000 0.14490  0.50000  0.14490  Biso   1.000  C
  H47      1.0000 0.10990  0.50000  0.10990  Biso   1.000  H
  C144     1.0000 0.24360  0.50000  0.24360  Biso   1.000  C
  H48      1.0000 0.27860  0.50000  0.27860  Biso   1.000  H
