data_image0
_cell_length_a       18.4819
_cell_length_b       18.4819
_cell_length_c       34.4495
_cell_angle_alpha    90
_cell_angle_beta     90
_cell_angle_gamma    120

_symmetry_space_group_name_H-M    "P 1"
_symmetry_int_tables_number       1

loop_
  _symmetry_equiv_pos_as_xyz
  'x, y, z'

loop_
  _atom_site_label
  _atom_site_occupancy
  _atom_site_fract_x
  _atom_site_fract_y
  _atom_site_fract_z
  _atom_site_thermal_displace_type
  _atom_site_B_iso_or_equiv
  _atom_site_type_symbol
  O1       1.0000 0.58751  0.02745  0.05077  Biso   1.000  O
  O2       1.0000 0.62863  0.10934  0.99761  Biso   1.000  O
  C1       1.0000 0.63950  0.09060  0.03153  Biso   1.000  C
  C2       1.0000 0.72090  0.14910  0.05100  Biso   1.000  C
  C3       1.0000 0.73640  0.13430  0.08877  Biso   1.000  C
  H1       1.0000 0.69800  0.08550  0.10140  Biso   1.000  H
  C4       1.0000 0.79630  0.09600  0.16330  Biso   1.000  C
  C5       1.0000 0.83810  0.24410  0.17620  Biso   1.000  C
  H2       1.0000 0.77600  0.05250  0.14540  Biso   1.000  H
  C6       1.0000 0.80310  0.07990  0.20270  Biso   1.000  C
  C7       1.0000 0.83940  0.22200  0.21710  Biso   1.000  C
  H3       1.0000 0.78680  0.02700  0.21240  Biso   1.000  H
  O3       1.0000 0.97255  0.56006  0.05077  Biso   1.000  O
  O4       1.0000 0.89066  0.51929  0.99761  Biso   1.000  O
  C8       1.0000 0.90940  0.54890  0.03153  Biso   1.000  C
  C9       1.0000 0.85090  0.57180  0.05100  Biso   1.000  C
  C10      1.0000 0.86570  0.60210  0.08877  Biso   1.000  C
  H4       1.0000 0.91450  0.61250  0.10140  Biso   1.000  H
  C11      1.0000 0.90400  0.70030  0.16330  Biso   1.000  C
  C12      1.0000 0.75590  0.59400  0.17620  Biso   1.000  C
  H5       1.0000 0.94750  0.72350  0.14540  Biso   1.000  H
  C13      1.0000 0.92010  0.72320  0.20270  Biso   1.000  C
  C14      1.0000 0.77800  0.61740  0.21710  Biso   1.000  C
  H6       1.0000 0.97300  0.75980  0.21240  Biso   1.000  H
  O5       1.0000 0.43994  0.41249  0.05077  Biso   1.000  O
  O6       1.0000 0.48071  0.37137  0.99761  Biso   1.000  O
  C15      1.0000 0.45110  0.36050  0.03153  Biso   1.000  C
  C16      1.0000 0.42820  0.27910  0.05100  Biso   1.000  C
  C17      1.0000 0.39790  0.26360  0.08877  Biso   1.000  C
  H7       1.0000 0.38750  0.30200  0.10140  Biso   1.000  H
  C18      1.0000 0.29970  0.20370  0.16330  Biso   1.000  C
  C19      1.0000 0.40600  0.16190  0.17620  Biso   1.000  C
  H8       1.0000 0.27650  0.22400  0.14540  Biso   1.000  H
  C20      1.0000 0.27680  0.19690  0.20270  Biso   1.000  C
  C21      1.0000 0.38260  0.16060  0.21710  Biso   1.000  C
  H9       1.0000 0.24020  0.21320  0.21240  Biso   1.000  H
  O7       1.0000 0.41249  0.97255  0.55077  Biso   1.000  O
  O8       1.0000 0.37137  0.89066  0.49761  Biso   1.000  O
  C22      1.0000 0.36050  0.90940  0.53153  Biso   1.000  C
  C23      1.0000 0.27910  0.85090  0.55100  Biso   1.000  C
  C24      1.0000 0.26360  0.86570  0.58877  Biso   1.000  C
  H10      1.0000 0.30200  0.91450  0.60140  Biso   1.000  H
  C25      1.0000 0.20370  0.90400  0.66330  Biso   1.000  C
  C26      1.0000 0.16190  0.75590  0.67620  Biso   1.000  C
  H11      1.0000 0.22400  0.94750  0.64540  Biso   1.000  H
  C27      1.0000 0.19690  0.92010  0.70270  Biso   1.000  C
  C28      1.0000 0.16060  0.77800  0.71710  Biso   1.000  C
  H12      1.0000 0.21320  0.97300  0.71240  Biso   1.000  H
  O9       1.0000 0.02745  0.43994  0.55077  Biso   1.000  O
  O10      1.0000 0.10934  0.48071  0.49761  Biso   1.000  O
  C29      1.0000 0.09060  0.45110  0.53153  Biso   1.000  C
  C30      1.0000 0.14910  0.42820  0.55100  Biso   1.000  C
  C31      1.0000 0.13430  0.39790  0.58877  Biso   1.000  C
  H13      1.0000 0.08550  0.38750  0.60140  Biso   1.000  H
  C32      1.0000 0.09600  0.29970  0.66330  Biso   1.000  C
  C33      1.0000 0.24410  0.40600  0.67620  Biso   1.000  C
  H14      1.0000 0.05250  0.27650  0.64540  Biso   1.000  H
  C34      1.0000 0.07990  0.27680  0.70270  Biso   1.000  C
  C35      1.0000 0.22200  0.38260  0.71710  Biso   1.000  C
  H15      1.0000 0.02700  0.24020  0.71240  Biso   1.000  H
  O11      1.0000 0.56006  0.58751  0.55077  Biso   1.000  O
  O12      1.0000 0.51929  0.62863  0.49761  Biso   1.000  O
  C36      1.0000 0.54890  0.63950  0.53153  Biso   1.000  C
  C37      1.0000 0.57180  0.72090  0.55100  Biso   1.000  C
  C38      1.0000 0.60210  0.73640  0.58877  Biso   1.000  C
  H16      1.0000 0.61250  0.69800  0.60140  Biso   1.000  H
  C39      1.0000 0.70030  0.79630  0.66330  Biso   1.000  C
  C40      1.0000 0.59400  0.83810  0.67620  Biso   1.000  C
  H17      1.0000 0.72350  0.77600  0.64540  Biso   1.000  H
  C41      1.0000 0.72320  0.80310  0.70270  Biso   1.000  C
  C42      1.0000 0.61740  0.83940  0.71710  Biso   1.000  C
  H18      1.0000 0.75980  0.78680  0.71240  Biso   1.000  H
  O13      1.0000 0.02745  0.58751  0.94923  Biso   1.000  O
  O14      1.0000 0.10934  0.62863  0.00239  Biso   1.000  O
  C43      1.0000 0.09060  0.63950  0.96847  Biso   1.000  C
  C44      1.0000 0.14910  0.72090  0.94900  Biso   1.000  C
  C45      1.0000 0.13430  0.73640  0.91123  Biso   1.000  C
  H19      1.0000 0.08550  0.69800  0.89860  Biso   1.000  H
  C46      1.0000 0.09600  0.79630  0.83670  Biso   1.000  C
  C47      1.0000 0.24410  0.83810  0.82380  Biso   1.000  C
  H20      1.0000 0.05250  0.77600  0.85460  Biso   1.000  H
  C48      1.0000 0.07990  0.80310  0.79730  Biso   1.000  C
  C49      1.0000 0.22200  0.83940  0.78290  Biso   1.000  C
  H21      1.0000 0.02700  0.78680  0.78760  Biso   1.000  H
  O15      1.0000 0.56006  0.97255  0.94923  Biso   1.000  O
  O16      1.0000 0.51929  0.89066  0.00239  Biso   1.000  O
  C50      1.0000 0.54890  0.90940  0.96847  Biso   1.000  C
  C51      1.0000 0.57180  0.85090  0.94900  Biso   1.000  C
  C52      1.0000 0.60210  0.86570  0.91123  Biso   1.000  C
  H22      1.0000 0.61250  0.91450  0.89860  Biso   1.000  H
  C53      1.0000 0.70030  0.90400  0.83670  Biso   1.000  C
  C54      1.0000 0.59400  0.75590  0.82380  Biso   1.000  C
  H23      1.0000 0.72350  0.94750  0.85460  Biso   1.000  H
  C55      1.0000 0.72320  0.92010  0.79730  Biso   1.000  C
  C56      1.0000 0.61740  0.77800  0.78290  Biso   1.000  C
  H24      1.0000 0.75980  0.97300  0.78760  Biso   1.000  H
  O17      1.0000 0.41249  0.43994  0.94923  Biso   1.000  O
  O18      1.0000 0.37137  0.48071  0.00239  Biso   1.000  O
  C57      1.0000 0.36050  0.45110  0.96847  Biso   1.000  C
  C58      1.0000 0.27910  0.42820  0.94900  Biso   1.000  C
  C59      1.0000 0.26360  0.39790  0.91123  Biso   1.000  C
  H25      1.0000 0.30200  0.38750  0.89860  Biso   1.000  H
  C60      1.0000 0.20370  0.29970  0.83670  Biso   1.000  C
  C61      1.0000 0.16190  0.40600  0.82380  Biso   1.000  C
  H26      1.0000 0.22400  0.27650  0.85460  Biso   1.000  H
  C62      1.0000 0.19690  0.27680  0.79730  Biso   1.000  C
  C63      1.0000 0.16060  0.38260  0.78290  Biso   1.000  C
  H27      1.0000 0.21320  0.24020  0.78760  Biso   1.000  H
  O19      1.0000 0.97255  0.41249  0.44923  Biso   1.000  O
  O20      1.0000 0.89066  0.37137  0.50239  Biso   1.000  O
  C64      1.0000 0.90940  0.36050  0.46847  Biso   1.000  C
  C65      1.0000 0.85090  0.27910  0.44900  Biso   1.000  C
  C66      1.0000 0.86570  0.26360  0.41123  Biso   1.000  C
  H28      1.0000 0.91450  0.30200  0.39860  Biso   1.000  H
  C67      1.0000 0.90400  0.20370  0.33670  Biso   1.000  C
  C68      1.0000 0.75590  0.16190  0.32380  Biso   1.000  C
  H29      1.0000 0.94750  0.22400  0.35460  Biso   1.000  H
  C69      1.0000 0.92010  0.19690  0.29730  Biso   1.000  C
  C70      1.0000 0.77800  0.16060  0.28290  Biso   1.000  C
  H30      1.0000 0.97300  0.21320  0.28760  Biso   1.000  H
  O21      1.0000 0.43994  0.02745  0.44923  Biso   1.000  O
  O22      1.0000 0.48071  0.10934  0.50239  Biso   1.000  O
  C71      1.0000 0.45110  0.09060  0.46847  Biso   1.000  C
  C72      1.0000 0.42820  0.14910  0.44900  Biso   1.000  C
  C73      1.0000 0.39790  0.13430  0.41123  Biso   1.000  C
  H31      1.0000 0.38750  0.08550  0.39860  Biso   1.000  H
  C74      1.0000 0.29970  0.09600  0.33670  Biso   1.000  C
  C75      1.0000 0.40600  0.24410  0.32380  Biso   1.000  C
  H32      1.0000 0.27650  0.05250  0.35460  Biso   1.000  H
  C76      1.0000 0.27680  0.07990  0.29730  Biso   1.000  C
  C77      1.0000 0.38260  0.22200  0.28290  Biso   1.000  C
  H33      1.0000 0.24020  0.02700  0.28760  Biso   1.000  H
  O23      1.0000 0.58751  0.56006  0.44923  Biso   1.000  O
  O24      1.0000 0.62863  0.51929  0.50239  Biso   1.000  O
  C78      1.0000 0.63950  0.54890  0.46847  Biso   1.000  C
  C79      1.0000 0.72090  0.57180  0.44900  Biso   1.000  C
  C80      1.0000 0.73640  0.60210  0.41123  Biso   1.000  C
  H34      1.0000 0.69800  0.61250  0.39860  Biso   1.000  H
  C81      1.0000 0.79630  0.70030  0.33670  Biso   1.000  C
  C82      1.0000 0.83810  0.59400  0.32380  Biso   1.000  C
  H35      1.0000 0.77600  0.72350  0.35460  Biso   1.000  H
  C83      1.0000 0.80310  0.72320  0.29730  Biso   1.000  C
  C84      1.0000 0.83940  0.61740  0.28290  Biso   1.000  C
  H36      1.0000 0.78680  0.75980  0.28760  Biso   1.000  H
  O25      1.0000 0.41249  0.97255  0.94923  Biso   1.000  O
  O26      1.0000 0.37137  0.89066  0.00239  Biso   1.000  O
  C85      1.0000 0.36050  0.90940  0.96847  Biso   1.000  C
  C86      1.0000 0.27910  0.85090  0.94900  Biso   1.000  C
  C87      1.0000 0.26360  0.86570  0.91123  Biso   1.000  C
  H37      1.0000 0.30200  0.91450  0.89860  Biso   1.000  H
  C88      1.0000 0.20370  0.90400  0.83670  Biso   1.000  C
  C89      1.0000 0.16190  0.75590  0.82380  Biso   1.000  C
  H38      1.0000 0.22400  0.94750  0.85460  Biso   1.000  H
  C90      1.0000 0.19690  0.92010  0.79730  Biso   1.000  C
  C91      1.0000 0.16060  0.77800  0.78290  Biso   1.000  C
  H39      1.0000 0.21320  0.97300  0.78760  Biso   1.000  H
  O27      1.0000 0.02745  0.43994  0.94923  Biso   1.000  O
  O28      1.0000 0.10934  0.48071  0.00239  Biso   1.000  O
  C92      1.0000 0.09060  0.45110  0.96847  Biso   1.000  C
  C93      1.0000 0.14910  0.42820  0.94900  Biso   1.000  C
  C94      1.0000 0.13430  0.39790  0.91123  Biso   1.000  C
  H40      1.0000 0.08550  0.38750  0.89860  Biso   1.000  H
  C95      1.0000 0.09600  0.29970  0.83670  Biso   1.000  C
  C96      1.0000 0.24410  0.40600  0.82380  Biso   1.000  C
  H41      1.0000 0.05250  0.27650  0.85460  Biso   1.000  H
  C97      1.0000 0.07990  0.27680  0.79730  Biso   1.000  C
  C98      1.0000 0.22200  0.38260  0.78290  Biso   1.000  C
  H42      1.0000 0.02700  0.24020  0.78760  Biso   1.000  H
  O29      1.0000 0.56006  0.58751  0.94923  Biso   1.000  O
  O30      1.0000 0.51929  0.62863  0.00239  Biso   1.000  O
  C99      1.0000 0.54890  0.63950  0.96847  Biso   1.000  C
  C100     1.0000 0.57180  0.72090  0.94900  Biso   1.000  C
  C101     1.0000 0.60210  0.73640  0.91123  Biso   1.000  C
  H43      1.0000 0.61250  0.69800  0.89860  Biso   1.000  H
  C102     1.0000 0.70030  0.79630  0.83670  Biso   1.000  C
  C103     1.0000 0.59400  0.83810  0.82380  Biso   1.000  C
  H44      1.0000 0.72350  0.77600  0.85460  Biso   1.000  H
  C104     1.0000 0.72320  0.80310  0.79730  Biso   1.000  C
  C105     1.0000 0.61740  0.83940  0.78290  Biso   1.000  C
  H45      1.0000 0.75980  0.78680  0.78760  Biso   1.000  H
  O31      1.0000 0.58751  0.02745  0.44923  Biso   1.000  O
  O32      1.0000 0.62863  0.10934  0.50239  Biso   1.000  O
  C106     1.0000 0.63950  0.09060  0.46847  Biso   1.000  C
  C107     1.0000 0.72090  0.14910  0.44900  Biso   1.000  C
  C108     1.0000 0.73640  0.13430  0.41123  Biso   1.000  C
  H46      1.0000 0.69800  0.08550  0.39860  Biso   1.000  H
  C109     1.0000 0.79630  0.09600  0.33670  Biso   1.000  C
  C110     1.0000 0.83810  0.24410  0.32380  Biso   1.000  C
  H47      1.0000 0.77600  0.05250  0.35460  Biso   1.000  H
  C111     1.0000 0.80310  0.07990  0.29730  Biso   1.000  C
  C112     1.0000 0.83940  0.22200  0.28290  Biso   1.000  C
  H48      1.0000 0.78680  0.02700  0.28760  Biso   1.000  H
  O33      1.0000 0.97255  0.56006  0.44923  Biso   1.000  O
  O34      1.0000 0.89066  0.51929  0.50239  Biso   1.000  O
  C113     1.0000 0.90940  0.54890  0.46847  Biso   1.000  C
  C114     1.0000 0.85090  0.57180  0.44900  Biso   1.000  C
  C115     1.0000 0.86570  0.60210  0.41123  Biso   1.000  C
  H49      1.0000 0.91450  0.61250  0.39860  Biso   1.000  H
  C116     1.0000 0.90400  0.70030  0.33670  Biso   1.000  C
  C117     1.0000 0.75590  0.59400  0.32380  Biso   1.000  C
  H50      1.0000 0.94750  0.72350  0.35460  Biso   1.000  H
  C118     1.0000 0.92010  0.72320  0.29730  Biso   1.000  C
  C119     1.0000 0.77800  0.61740  0.28290  Biso   1.000  C
  H51      1.0000 0.97300  0.75980  0.28760  Biso   1.000  H
  O35      1.0000 0.43994  0.41249  0.44923  Biso   1.000  O
  O36      1.0000 0.48071  0.37137  0.50239  Biso   1.000  O
  C120     1.0000 0.45110  0.36050  0.46847  Biso   1.000  C
  C121     1.0000 0.42820  0.27910  0.44900  Biso   1.000  C
  C122     1.0000 0.39790  0.26360  0.41123  Biso   1.000  C
  H52      1.0000 0.38750  0.30200  0.39860  Biso   1.000  H
  C123     1.0000 0.29970  0.20370  0.33670  Biso   1.000  C
  C124     1.0000 0.40600  0.16190  0.32380  Biso   1.000  C
  H53      1.0000 0.27650  0.22400  0.35460  Biso   1.000  H
  C125     1.0000 0.27680  0.19690  0.29730  Biso   1.000  C
  C126     1.0000 0.38260  0.16060  0.28290  Biso   1.000  C
  H54      1.0000 0.24020  0.21320  0.28760  Biso   1.000  H
  O37      1.0000 0.97255  0.41249  0.05077  Biso   1.000  O
  O38      1.0000 0.89066  0.37137  0.99761  Biso   1.000  O
  C127     1.0000 0.90940  0.36050  0.03153  Biso   1.000  C
  C128     1.0000 0.85090  0.27910  0.05100  Biso   1.000  C
  C129     1.0000 0.86570  0.26360  0.08877  Biso   1.000  C
  H55      1.0000 0.91450  0.30200  0.10140  Biso   1.000  H
  C130     1.0000 0.90400  0.20370  0.16330  Biso   1.000  C
  C131     1.0000 0.75590  0.16190  0.17620  Biso   1.000  C
  H56      1.0000 0.94750  0.22400  0.14540  Biso   1.000  H
  C132     1.0000 0.92010  0.19690  0.20270  Biso   1.000  C
  C133     1.0000 0.77800  0.16060  0.21710  Biso   1.000  C
  H57      1.0000 0.97300  0.21320  0.21240  Biso   1.000  H
  O39      1.0000 0.43994  0.02745  0.05077  Biso   1.000  O
  O40      1.0000 0.48071  0.10934  0.99761  Biso   1.000  O
  C134     1.0000 0.45110  0.09060  0.03153  Biso   1.000  C
  C135     1.0000 0.42820  0.14910  0.05100  Biso   1.000  C
  C136     1.0000 0.39790  0.13430  0.08877  Biso   1.000  C
  H58      1.0000 0.38750  0.08550  0.10140  Biso   1.000  H
  C137     1.0000 0.29970  0.09600  0.16330  Biso   1.000  C
  C138     1.0000 0.40600  0.24410  0.17620  Biso   1.000  C
  H59      1.0000 0.27650  0.05250  0.14540  Biso   1.000  H
  C139     1.0000 0.27680  0.07990  0.20270  Biso   1.000  C
  C140     1.0000 0.38260  0.22200  0.21710  Biso   1.000  C
  H60      1.0000 0.24020  0.02700  0.21240  Biso   1.000  H
  O41      1.0000 0.58751  0.56006  0.05077  Biso   1.000  O
  O42      1.0000 0.62863  0.51929  0.99761  Biso   1.000  O
  C141     1.0000 0.63950  0.54890  0.03153  Biso   1.000  C
  C142     1.0000 0.72090  0.57180  0.05100  Biso   1.000  C
  C143     1.0000 0.73640  0.60210  0.08877  Biso   1.000  C
  H61      1.0000 0.69800  0.61250  0.10140  Biso   1.000  H
  C144     1.0000 0.79630  0.70030  0.16330  Biso   1.000  C
  C145     1.0000 0.83810  0.59400  0.17620  Biso   1.000  C
  H62      1.0000 0.77600  0.72350  0.14540  Biso   1.000  H
  C146     1.0000 0.80310  0.72320  0.20270  Biso   1.000  C
  C147     1.0000 0.83940  0.61740  0.21710  Biso   1.000  C
  H63      1.0000 0.78680  0.75980  0.21240  Biso   1.000  H
  O43      1.0000 0.02745  0.58751  0.55077  Biso   1.000  O
  O44      1.0000 0.10934  0.62863  0.49761  Biso   1.000  O
  C148     1.0000 0.09060  0.63950  0.53153  Biso   1.000  C
  C149     1.0000 0.14910  0.72090  0.55100  Biso   1.000  C
  C150     1.0000 0.13430  0.73640  0.58877  Biso   1.000  C
  H64      1.0000 0.08550  0.69800  0.60140  Biso   1.000  H
  C151     1.0000 0.09600  0.79630  0.66330  Biso   1.000  C
  C152     1.0000 0.24410  0.83810  0.67620  Biso   1.000  C
  H65      1.0000 0.05250  0.77600  0.64540  Biso   1.000  H
  C153     1.0000 0.07990  0.80310  0.70270  Biso   1.000  C
  C154     1.0000 0.22200  0.83940  0.71710  Biso   1.000  C
  H66      1.0000 0.02700  0.78680  0.71240  Biso   1.000  H
  O45      1.0000 0.56006  0.97255  0.55077  Biso   1.000  O
  O46      1.0000 0.51929  0.89066  0.49761  Biso   1.000  O
  C155     1.0000 0.54890  0.90940  0.53153  Biso   1.000  C
  C156     1.0000 0.57180  0.85090  0.55100  Biso   1.000  C
  C157     1.0000 0.60210  0.86570  0.58877  Biso   1.000  C
  H67      1.0000 0.61250  0.91450  0.60140  Biso   1.000  H
  C158     1.0000 0.70030  0.90400  0.66330  Biso   1.000  C
  C159     1.0000 0.59400  0.75590  0.67620  Biso   1.000  C
  H68      1.0000 0.72350  0.94750  0.64540  Biso   1.000  H
  C160     1.0000 0.72320  0.92010  0.70270  Biso   1.000  C
  C161     1.0000 0.61740  0.77800  0.71710  Biso   1.000  C
  H69      1.0000 0.75980  0.97300  0.71240  Biso   1.000  H
  O47      1.0000 0.41249  0.43994  0.55077  Biso   1.000  O
  O48      1.0000 0.37137  0.48071  0.49761  Biso   1.000  O
  C162     1.0000 0.36050  0.45110  0.53153  Biso   1.000  C
  C163     1.0000 0.27910  0.42820  0.55100  Biso   1.000  C
  C164     1.0000 0.26360  0.39790  0.58877  Biso   1.000  C
  H70      1.0000 0.30200  0.38750  0.60140  Biso   1.000  H
  C165     1.0000 0.20370  0.29970  0.66330  Biso   1.000  C
  C166     1.0000 0.16190  0.40600  0.67620  Biso   1.000  C
  H71      1.0000 0.22400  0.27650  0.64540  Biso   1.000  H
  C167     1.0000 0.19690  0.27680  0.70270  Biso   1.000  C
  C168     1.0000 0.16060  0.38260  0.71710  Biso   1.000  C
  H72      1.0000 0.21320  0.24020  0.71240  Biso   1.000  H
  Cu1      1.0000 0.47568  0.95136  0.03105  Biso   1.000  Cu
  Cu2      1.0000 0.04864  0.52432  0.03105  Biso   1.000  Cu
  Cu3      1.0000 0.47568  0.52432  0.03105  Biso   1.000  Cu
  Cu4      1.0000 0.52432  0.04864  0.53105  Biso   1.000  Cu
  Cu5      1.0000 0.95136  0.47568  0.53105  Biso   1.000  Cu
  Cu6      1.0000 0.52432  0.47568  0.53105  Biso   1.000  Cu
  Cu7      1.0000 0.95136  0.47568  0.96895  Biso   1.000  Cu
  Cu8      1.0000 0.52432  0.04864  0.96895  Biso   1.000  Cu
  Cu9      1.0000 0.52432  0.47568  0.96895  Biso   1.000  Cu
  Cu10     1.0000 0.04864  0.52432  0.46895  Biso   1.000  Cu
  Cu11     1.0000 0.47568  0.95136  0.46895  Biso   1.000  Cu
  Cu12     1.0000 0.47568  0.52432  0.46895  Biso   1.000  Cu
  C169     1.0000 0.77847  0.22153  0.03237  Biso   1.000  C
  H73      1.0000 0.76840  0.23160  0.00700  Biso   1.000  H
  C170     1.0000 0.80850  0.19150  0.10784  Biso   1.000  C
  C171     1.0000 0.82070  0.17930  0.15062  Biso   1.000  C
  C172     1.0000 0.84050  0.15950  0.22820  Biso   1.000  C
  C173     1.0000 0.77847  0.55694  0.03237  Biso   1.000  C
  H74      1.0000 0.76840  0.53680  0.00700  Biso   1.000  H
  C174     1.0000 0.80850  0.61700  0.10784  Biso   1.000  C
  C175     1.0000 0.82070  0.64140  0.15062  Biso   1.000  C
  C176     1.0000 0.84050  0.68100  0.22820  Biso   1.000  C
  C177     1.0000 0.44306  0.22153  0.03237  Biso   1.000  C
  H75      1.0000 0.46320  0.23160  0.00700  Biso   1.000  H
  C178     1.0000 0.38300  0.19150  0.10784  Biso   1.000  C
  C179     1.0000 0.35860  0.17930  0.15062  Biso   1.000  C
  C180     1.0000 0.31900  0.15950  0.22820  Biso   1.000  C
  C181     1.0000 0.22153  0.77847  0.53237  Biso   1.000  C
  H76      1.0000 0.23160  0.76840  0.50700  Biso   1.000  H
  C182     1.0000 0.19150  0.80850  0.60784  Biso   1.000  C
  C183     1.0000 0.17930  0.82070  0.65062  Biso   1.000  C
  C184     1.0000 0.15950  0.84050  0.72820  Biso   1.000  C
  C185     1.0000 0.22153  0.44306  0.53237  Biso   1.000  C
  H77      1.0000 0.23160  0.46320  0.50700  Biso   1.000  H
  C186     1.0000 0.19150  0.38300  0.60784  Biso   1.000  C
  C187     1.0000 0.17930  0.35860  0.65062  Biso   1.000  C
  C188     1.0000 0.15950  0.31900  0.72820  Biso   1.000  C
  C189     1.0000 0.55694  0.77847  0.53237  Biso   1.000  C
  H78      1.0000 0.53680  0.76840  0.50700  Biso   1.000  H
  C190     1.0000 0.61700  0.80850  0.60784  Biso   1.000  C
  C191     1.0000 0.64140  0.82070  0.65062  Biso   1.000  C
  C192     1.0000 0.68100  0.84050  0.72820  Biso   1.000  C
  C193     1.0000 0.22153  0.77847  0.96763  Biso   1.000  C
  H79      1.0000 0.23160  0.76840  0.99300  Biso   1.000  H
  C194     1.0000 0.19150  0.80850  0.89216  Biso   1.000  C
  C195     1.0000 0.17930  0.82070  0.84938  Biso   1.000  C
  C196     1.0000 0.15950  0.84050  0.77180  Biso   1.000  C
  C197     1.0000 0.55694  0.77847  0.96763  Biso   1.000  C
  H80      1.0000 0.53680  0.76840  0.99300  Biso   1.000  H
  C198     1.0000 0.61700  0.80850  0.89216  Biso   1.000  C
  C199     1.0000 0.64140  0.82070  0.84938  Biso   1.000  C
  C200     1.0000 0.68100  0.84050  0.77180  Biso   1.000  C
  C201     1.0000 0.22153  0.44306  0.96763  Biso   1.000  C
  H81      1.0000 0.23160  0.46320  0.99300  Biso   1.000  H
  C202     1.0000 0.19150  0.38300  0.89216  Biso   1.000  C
  C203     1.0000 0.17930  0.35860  0.84938  Biso   1.000  C
  C204     1.0000 0.15950  0.31900  0.77180  Biso   1.000  C
  C205     1.0000 0.77847  0.22153  0.46763  Biso   1.000  C
  H82      1.0000 0.76840  0.23160  0.49300  Biso   1.000  H
  C206     1.0000 0.80850  0.19150  0.39216  Biso   1.000  C
  C207     1.0000 0.82070  0.17930  0.34938  Biso   1.000  C
  C208     1.0000 0.84050  0.15950  0.27180  Biso   1.000  C
  C209     1.0000 0.44306  0.22153  0.46763  Biso   1.000  C
  H83      1.0000 0.46320  0.23160  0.49300  Biso   1.000  H
  C210     1.0000 0.38300  0.19150  0.39216  Biso   1.000  C
  C211     1.0000 0.35860  0.17930  0.34938  Biso   1.000  C
  C212     1.0000 0.31900  0.15950  0.27180  Biso   1.000  C
  C213     1.0000 0.77847  0.55694  0.46763  Biso   1.000  C
  H84      1.0000 0.76840  0.53680  0.49300  Biso   1.000  H
  C214     1.0000 0.80850  0.61700  0.39216  Biso   1.000  C
  C215     1.0000 0.82070  0.64140  0.34938  Biso   1.000  C
  C216     1.0000 0.84050  0.68100  0.27180  Biso   1.000  C
  C217     1.0000 0.85080  0.28480  0.25000  Biso   1.000  C
  C218     1.0000 0.93980  0.35970  0.25000  Biso   1.000  C
  C219     1.0000 0.77820  0.29960  0.25000  Biso   1.000  C
  C220     1.0000 0.71520  0.56600  0.25000  Biso   1.000  C
  C221     1.0000 0.64030  0.58010  0.25000  Biso   1.000  C
  C222     1.0000 0.70040  0.47860  0.25000  Biso   1.000  C
  C223     1.0000 0.43400  0.14920  0.25000  Biso   1.000  C
  C224     1.0000 0.41990  0.06020  0.25000  Biso   1.000  C
  C225     1.0000 0.52140  0.22180  0.25000  Biso   1.000  C
  C226     1.0000 0.14920  0.71520  0.75000  Biso   1.000  C
  C227     1.0000 0.06020  0.64030  0.75000  Biso   1.000  C
  C228     1.0000 0.22180  0.70040  0.75000  Biso   1.000  C
  C229     1.0000 0.28480  0.43400  0.75000  Biso   1.000  C
  C230     1.0000 0.35970  0.41990  0.75000  Biso   1.000  C
  C231     1.0000 0.29960  0.52140  0.75000  Biso   1.000  C
  C232     1.0000 0.56600  0.85080  0.75000  Biso   1.000  C
  C233     1.0000 0.58010  0.93980  0.75000  Biso   1.000  C
  C234     1.0000 0.47860  0.77820  0.75000  Biso   1.000  C
  C235     1.0000 0.28480  0.85080  0.75000  Biso   1.000  C
  C236     1.0000 0.35970  0.93980  0.75000  Biso   1.000  C
  C237     1.0000 0.29960  0.77820  0.75000  Biso   1.000  C
  C238     1.0000 0.56600  0.71520  0.75000  Biso   1.000  C
  C239     1.0000 0.58010  0.64030  0.75000  Biso   1.000  C
  C240     1.0000 0.47860  0.70040  0.75000  Biso   1.000  C
  C241     1.0000 0.14920  0.43400  0.75000  Biso   1.000  C
  C242     1.0000 0.06020  0.41990  0.75000  Biso   1.000  C
  C243     1.0000 0.22180  0.52140  0.75000  Biso   1.000  C
  C244     1.0000 0.71520  0.14920  0.25000  Biso   1.000  C
  C245     1.0000 0.64030  0.06020  0.25000  Biso   1.000  C
  C246     1.0000 0.70040  0.22180  0.25000  Biso   1.000  C
  C247     1.0000 0.43400  0.28480  0.25000  Biso   1.000  C
  C248     1.0000 0.41990  0.35970  0.25000  Biso   1.000  C
  C249     1.0000 0.52140  0.29960  0.25000  Biso   1.000  C
  C250     1.0000 0.85080  0.56600  0.25000  Biso   1.000  C
  C251     1.0000 0.93980  0.58010  0.25000  Biso   1.000  C
  C252     1.0000 0.77820  0.47860  0.25000  Biso   1.000  C
