data_image0
_cell_length_a       17.9831
_cell_length_b       28.2545
_cell_length_c       13.0479
_cell_angle_alpha    90
_cell_angle_beta     135.587
_cell_angle_gamma    90

_symmetry_space_group_name_H-M    "P 1"
_symmetry_int_tables_number       1

loop_
  _symmetry_equiv_pos_as_xyz
  'x, y, z'

loop_
  _atom_site_label
  _atom_site_occupancy
  _atom_site_fract_x
  _atom_site_fract_y
  _atom_site_fract_z
  _atom_site_thermal_displace_type
  _atom_site_B_iso_or_equiv
  _atom_site_type_symbol
  N1       1.0000 0.13410  0.93990  0.99800  Biso   1.000  N
  C1       1.0000 0.20750  0.91310  0.11600  Biso   1.000  C
  H1       1.0000 0.22340  0.91900  0.20150  Biso   1.000  H
  C2       1.0000 0.26180  0.87700  0.11960  Biso   1.000  C
  H2       1.0000 0.31280  0.85860  0.20590  Biso   1.000  H
  C3       1.0000 0.24130  0.86800  0.99720  Biso   1.000  C
  C4       1.0000 0.16810  0.89700  0.87700  Biso   1.000  C
  H3       1.0000 0.15200  0.89260  0.79100  Biso   1.000  H
  C5       1.0000 0.11870  0.93230  0.88400  Biso   1.000  C
  H4       1.0000 0.07050  0.95240  0.80090  Biso   1.000  H
  C6       1.0000 0.30270  0.83340  0.99580  Biso   1.000  C
  C7       1.0000 0.40870  0.84330  0.08200  Biso   1.000  C
  H5       1.0000 0.43990  0.87100  0.14140  Biso   1.000  H
  C8       1.0000 0.46820  0.81320  0.08260  Biso   1.000  C
  H6       1.0000 0.54120  0.82060  0.14480  Biso   1.000  H
  C9       1.0000 0.42890  0.77230  0.99740  Biso   1.000  C
  C10      1.0000 0.31870  0.76550  0.89930  Biso   1.000  C
  H7       1.0000 0.28580  0.74000  0.83130  Biso   1.000  H
  C11      1.0000 0.25700  0.79480  0.89920  Biso   1.000  C
  H8       1.0000 0.18310  0.78870  0.83320  Biso   1.000  H
  C12      1.0000 0.56720  0.70920  0.13850  Biso   1.000  C
  C13      1.0000 0.61840  0.66930  0.15120  Biso   1.000  C
  H9       1.0000 0.61550  0.66180  0.07740  Biso   1.000  H
  C14      1.0000 0.67400  0.64040  0.27390  Biso   1.000  C
  H10      1.0000 0.69590  0.61010  0.27230  Biso   1.000  H
  C15      1.0000 0.69860  0.65310  0.39510  Biso   1.000  C
  C16      1.0000 0.63750  0.69060  0.37600  Biso   1.000  C
  H11      1.0000 0.64050  0.69680  0.45070  Biso   1.000  H
  C17      1.0000 0.57120  0.71930  0.24700  Biso   1.000  C
  H12      1.0000 0.53100  0.74460  0.23590  Biso   1.000  H
  C18      1.0000 0.76490  0.62460  0.53140  Biso   1.000  C
  C19      1.0000 0.83630  0.59140  0.57000  Biso   1.000  C
  H13      1.0000 0.84310  0.58410  0.50620  Biso   1.000  H
  C20      1.0000 0.89540  0.56970  0.69580  Biso   1.000  C
  H14      1.0000 0.94160  0.54630  0.71410  Biso   1.000  H
  N2       1.0000 0.90060  0.57540  0.80080  Biso   1.000  N
  C21      1.0000 0.81850  0.60230  0.76000  Biso   1.000  C
  H15      1.0000 0.81110  0.60460  0.82460  Biso   1.000  H
  C22      1.0000 0.74450  0.62680  0.62300  Biso   1.000  C
  H16      1.0000 0.68560  0.64360  0.59260  Biso   1.000  H
  H17      1.0000 0.09700  0.86030  0.78360  Biso   1.000  H
  H18      1.0000 0.01290  0.92140  0.79220  Biso   1.000  H
  C23      1.0000 0.23460  0.92820  0.11700  Biso   1.000  C
  C24      1.0000 0.28940  0.89270  0.12200  Biso   1.000  C
  C25      1.0000 0.13490  0.87780  0.87120  Biso   1.000  C
  C26      1.0000 0.08520  0.91450  0.87790  Biso   1.000  C
  H19      1.0000 0.27070  0.94570  0.20430  Biso   1.000  H
  H20      1.0000 0.36020  0.88540  0.21180  Biso   1.000  H
  C27      1.0000 0.32130  0.84110  0.91200  Biso   1.000  C
  H21      1.0000 0.28860  0.86780  0.84830  Biso   1.000  H
  C28      1.0000 0.38380  0.81280  0.91290  Biso   1.000  C
  H22      1.0000 0.39620  0.82110  0.85560  Biso   1.000  H
  C29      1.0000 0.41710  0.76400  0.09180  Biso   1.000  C
  H23      1.0000 0.44860  0.73710  0.15440  Biso   1.000  H
  C30      1.0000 0.36100  0.79460  0.09070  Biso   1.000  C
  H24      1.0000 0.35990  0.78990  0.16170  Biso   1.000  H
  C31      1.0000 0.53760  0.66670  0.14470  Biso   1.000  C
  H25      1.0000 0.47010  0.65470  0.05860  Biso   1.000  H
  C32      1.0000 0.60010  0.63970  0.26920  Biso   1.000  C
  H26      1.0000 0.57310  0.61040  0.26680  Biso   1.000  H
  C33      1.0000 0.74680  0.68910  0.38200  Biso   1.000  C
  H27      1.0000 0.82170  0.69330  0.45490  Biso   1.000  H
  C34      1.0000 0.67760  0.71910  0.25140  Biso   1.000  C
  H28      1.0000 0.70630  0.74500  0.24250  Biso   1.000  H
  C35      1.0000 0.79650  0.57240  0.69530  Biso   1.000  C
  H29      1.0000 0.76540  0.55240  0.71480  Biso   1.000  H
  C36      1.0000 0.72990  0.59310  0.56800  Biso   1.000  C
  H30      1.0000 0.65620  0.58600  0.49960  Biso   1.000  H
  C37      1.0000 0.88040  0.62370  0.62860  Biso   1.000  C
  H31      1.0000 0.91120  0.63970  0.60210  Biso   1.000  H
  C38      1.0000 0.94530  0.59840  0.76300  Biso   1.000  C
  H32      1.0000 0.02010  0.59740  0.82700  Biso   1.000  H
  N3       1.0000 0.86590  0.93990  0.00200  Biso   1.000  N
  C39      1.0000 0.79250  0.91310  0.88400  Biso   1.000  C
  H33      1.0000 0.77660  0.91900  0.79850  Biso   1.000  H
  C40      1.0000 0.73820  0.87700  0.88040  Biso   1.000  C
  H34      1.0000 0.68720  0.85860  0.79410  Biso   1.000  H
  C41      1.0000 0.75870  0.86800  0.00280  Biso   1.000  C
  C42      1.0000 0.83190  0.89700  0.12300  Biso   1.000  C
  H35      1.0000 0.84800  0.89260  0.20900  Biso   1.000  H
  C43      1.0000 0.88130  0.93230  0.11600  Biso   1.000  C
  H36      1.0000 0.92950  0.95240  0.19910  Biso   1.000  H
  C44      1.0000 0.69730  0.83340  0.00420  Biso   1.000  C
  C45      1.0000 0.59130  0.84330  0.91800  Biso   1.000  C
  H37      1.0000 0.56010  0.87100  0.85860  Biso   1.000  H
  C46      1.0000 0.53180  0.81320  0.91740  Biso   1.000  C
  H38      1.0000 0.45880  0.82060  0.85520  Biso   1.000  H
  C47      1.0000 0.57110  0.77230  0.00260  Biso   1.000  C
  C48      1.0000 0.68130  0.76550  0.10070  Biso   1.000  C
  H39      1.0000 0.71420  0.74000  0.16870  Biso   1.000  H
  C49      1.0000 0.74300  0.79480  0.10080  Biso   1.000  C
  H40      1.0000 0.81690  0.78870  0.16680  Biso   1.000  H
  C50      1.0000 0.43280  0.70920  0.86150  Biso   1.000  C
  C51      1.0000 0.38160  0.66930  0.84880  Biso   1.000  C
  H41      1.0000 0.38450  0.66180  0.92260  Biso   1.000  H
  C52      1.0000 0.32600  0.64040  0.72610  Biso   1.000  C
  H42      1.0000 0.30410  0.61010  0.72770  Biso   1.000  H
  C53      1.0000 0.30140  0.65310  0.60490  Biso   1.000  C
  C54      1.0000 0.36250  0.69060  0.62400  Biso   1.000  C
  H43      1.0000 0.35950  0.69680  0.54930  Biso   1.000  H
  C55      1.0000 0.42880  0.71930  0.75300  Biso   1.000  C
  H44      1.0000 0.46900  0.74460  0.76410  Biso   1.000  H
  C56      1.0000 0.23510  0.62460  0.46860  Biso   1.000  C
  C57      1.0000 0.16370  0.59140  0.43000  Biso   1.000  C
  H45      1.0000 0.15690  0.58410  0.49380  Biso   1.000  H
  C58      1.0000 0.10460  0.56970  0.30420  Biso   1.000  C
  H46      1.0000 0.05840  0.54630  0.28590  Biso   1.000  H
  N4       1.0000 0.09940  0.57540  0.19920  Biso   1.000  N
  C59      1.0000 0.18150  0.60230  0.24000  Biso   1.000  C
  H47      1.0000 0.18890  0.60460  0.17540  Biso   1.000  H
  C60      1.0000 0.25550  0.62680  0.37700  Biso   1.000  C
  H48      1.0000 0.31440  0.64360  0.40740  Biso   1.000  H
  H49      1.0000 0.90300  0.86030  0.21640  Biso   1.000  H
  H50      1.0000 0.98710  0.92140  0.20780  Biso   1.000  H
  C61      1.0000 0.76540  0.92820  0.88300  Biso   1.000  C
  C62      1.0000 0.71060  0.89270  0.87800  Biso   1.000  C
  C63      1.0000 0.86510  0.87780  0.12880  Biso   1.000  C
  C64      1.0000 0.91480  0.91450  0.12210  Biso   1.000  C
  H51      1.0000 0.72930  0.94570  0.79570  Biso   1.000  H
  H52      1.0000 0.63980  0.88540  0.78820  Biso   1.000  H
  C65      1.0000 0.67870  0.84110  0.08800  Biso   1.000  C
  H53      1.0000 0.71140  0.86780  0.15170  Biso   1.000  H
  C66      1.0000 0.61620  0.81280  0.08710  Biso   1.000  C
  H54      1.0000 0.60380  0.82110  0.14440  Biso   1.000  H
  C67      1.0000 0.58290  0.76400  0.90820  Biso   1.000  C
  H55      1.0000 0.55140  0.73710  0.84560  Biso   1.000  H
  C68      1.0000 0.63900  0.79460  0.90930  Biso   1.000  C
  H56      1.0000 0.64010  0.78990  0.83830  Biso   1.000  H
  C69      1.0000 0.46240  0.66670  0.85530  Biso   1.000  C
  H57      1.0000 0.52990  0.65470  0.94140  Biso   1.000  H
  C70      1.0000 0.39990  0.63970  0.73080  Biso   1.000  C
  H58      1.0000 0.42690  0.61040  0.73320  Biso   1.000  H
  C71      1.0000 0.25320  0.68910  0.61800  Biso   1.000  C
  H59      1.0000 0.17830  0.69330  0.54510  Biso   1.000  H
  C72      1.0000 0.32240  0.71910  0.74860  Biso   1.000  C
  H60      1.0000 0.29370  0.74500  0.75750  Biso   1.000  H
  C73      1.0000 0.20350  0.57240  0.30470  Biso   1.000  C
  H61      1.0000 0.23460  0.55240  0.28520  Biso   1.000  H
  C74      1.0000 0.27010  0.59310  0.43200  Biso   1.000  C
  H62      1.0000 0.34380  0.58600  0.50040  Biso   1.000  H
  C75      1.0000 0.11960  0.62370  0.37140  Biso   1.000  C
  H63      1.0000 0.08880  0.63970  0.39790  Biso   1.000  H
  C76      1.0000 0.05470  0.59840  0.23700  Biso   1.000  C
  H64      1.0000 0.97990  0.59740  0.17300  Biso   1.000  H
  N5       1.0000 0.86590  0.06010  0.00200  Biso   1.000  N
  C77      1.0000 0.79250  0.08690  0.88400  Biso   1.000  C
  H65      1.0000 0.77660  0.08100  0.79850  Biso   1.000  H
  C78      1.0000 0.73820  0.12300  0.88040  Biso   1.000  C
  H66      1.0000 0.68720  0.14140  0.79410  Biso   1.000  H
  C79      1.0000 0.75870  0.13200  0.00280  Biso   1.000  C
  C80      1.0000 0.83190  0.10300  0.12300  Biso   1.000  C
  H67      1.0000 0.84800  0.10740  0.20900  Biso   1.000  H
  C81      1.0000 0.88130  0.06770  0.11600  Biso   1.000  C
  H68      1.0000 0.92950  0.04760  0.19910  Biso   1.000  H
  C82      1.0000 0.69730  0.16660  0.00420  Biso   1.000  C
  C83      1.0000 0.59130  0.15670  0.91800  Biso   1.000  C
  H69      1.0000 0.56010  0.12900  0.85860  Biso   1.000  H
  C84      1.0000 0.53180  0.18680  0.91740  Biso   1.000  C
  H70      1.0000 0.45880  0.17940  0.85520  Biso   1.000  H
  C85      1.0000 0.57110  0.22770  0.00260  Biso   1.000  C
  C86      1.0000 0.68130  0.23450  0.10070  Biso   1.000  C
  H71      1.0000 0.71420  0.26000  0.16870  Biso   1.000  H
  C87      1.0000 0.74300  0.20520  0.10080  Biso   1.000  C
  H72      1.0000 0.81690  0.21130  0.16680  Biso   1.000  H
  C88      1.0000 0.43280  0.29080  0.86150  Biso   1.000  C
  C89      1.0000 0.38160  0.33070  0.84880  Biso   1.000  C
  H73      1.0000 0.38450  0.33820  0.92260  Biso   1.000  H
  C90      1.0000 0.32600  0.35960  0.72610  Biso   1.000  C
  H74      1.0000 0.30410  0.38990  0.72770  Biso   1.000  H
  C91      1.0000 0.30140  0.34690  0.60490  Biso   1.000  C
  C92      1.0000 0.36250  0.30940  0.62400  Biso   1.000  C
  H75      1.0000 0.35950  0.30320  0.54930  Biso   1.000  H
  C93      1.0000 0.42880  0.28070  0.75300  Biso   1.000  C
  H76      1.0000 0.46900  0.25540  0.76410  Biso   1.000  H
  C94      1.0000 0.23510  0.37540  0.46860  Biso   1.000  C
  C95      1.0000 0.16370  0.40860  0.43000  Biso   1.000  C
  H77      1.0000 0.15690  0.41590  0.49380  Biso   1.000  H
  C96      1.0000 0.10460  0.43030  0.30420  Biso   1.000  C
  H78      1.0000 0.05840  0.45370  0.28590  Biso   1.000  H
  N6       1.0000 0.09940  0.42460  0.19920  Biso   1.000  N
  C97      1.0000 0.18150  0.39770  0.24000  Biso   1.000  C
  H79      1.0000 0.18890  0.39540  0.17540  Biso   1.000  H
  C98      1.0000 0.25550  0.37320  0.37700  Biso   1.000  C
  H80      1.0000 0.31440  0.35640  0.40740  Biso   1.000  H
  H81      1.0000 0.90300  0.13970  0.21640  Biso   1.000  H
  H82      1.0000 0.98710  0.07860  0.20780  Biso   1.000  H
  C99      1.0000 0.76540  0.07180  0.88300  Biso   1.000  C
  C100     1.0000 0.71060  0.10730  0.87800  Biso   1.000  C
  C101     1.0000 0.86510  0.12220  0.12880  Biso   1.000  C
  C102     1.0000 0.91480  0.08550  0.12210  Biso   1.000  C
  H83      1.0000 0.72930  0.05430  0.79570  Biso   1.000  H
  H84      1.0000 0.63980  0.11460  0.78820  Biso   1.000  H
  C103     1.0000 0.67870  0.15890  0.08800  Biso   1.000  C
  H85      1.0000 0.71140  0.13220  0.15170  Biso   1.000  H
  C104     1.0000 0.61620  0.18720  0.08710  Biso   1.000  C
  H86      1.0000 0.60380  0.17890  0.14440  Biso   1.000  H
  C105     1.0000 0.58290  0.23600  0.90820  Biso   1.000  C
  H87      1.0000 0.55140  0.26290  0.84560  Biso   1.000  H
  C106     1.0000 0.63900  0.20540  0.90930  Biso   1.000  C
  H88      1.0000 0.64010  0.21010  0.83830  Biso   1.000  H
  C107     1.0000 0.46240  0.33330  0.85530  Biso   1.000  C
  H89      1.0000 0.52990  0.34530  0.94140  Biso   1.000  H
  C108     1.0000 0.39990  0.36030  0.73080  Biso   1.000  C
  H90      1.0000 0.42690  0.38960  0.73320  Biso   1.000  H
  C109     1.0000 0.25320  0.31090  0.61800  Biso   1.000  C
  H91      1.0000 0.17830  0.30670  0.54510  Biso   1.000  H
  C110     1.0000 0.32240  0.28090  0.74860  Biso   1.000  C
  H92      1.0000 0.29370  0.25500  0.75750  Biso   1.000  H
  C111     1.0000 0.20350  0.42760  0.30470  Biso   1.000  C
  H93      1.0000 0.23460  0.44760  0.28520  Biso   1.000  H
  C112     1.0000 0.27010  0.40690  0.43200  Biso   1.000  C
  H94      1.0000 0.34380  0.41400  0.50040  Biso   1.000  H
  C113     1.0000 0.11960  0.37630  0.37140  Biso   1.000  C
  H95      1.0000 0.08880  0.36030  0.39790  Biso   1.000  H
  C114     1.0000 0.05470  0.40160  0.23700  Biso   1.000  C
  H96      1.0000 0.97990  0.40260  0.17300  Biso   1.000  H
  N7       1.0000 0.13410  0.06010  0.99800  Biso   1.000  N
  C115     1.0000 0.20750  0.08690  0.11600  Biso   1.000  C
  H97      1.0000 0.22340  0.08100  0.20150  Biso   1.000  H
  C116     1.0000 0.26180  0.12300  0.11960  Biso   1.000  C
  H98      1.0000 0.31280  0.14140  0.20590  Biso   1.000  H
  C117     1.0000 0.24130  0.13200  0.99720  Biso   1.000  C
  C118     1.0000 0.16810  0.10300  0.87700  Biso   1.000  C
  H99      1.0000 0.15200  0.10740  0.79100  Biso   1.000  H
  C119     1.0000 0.11870  0.06770  0.88400  Biso   1.000  C
  H100     1.0000 0.07050  0.04760  0.80090  Biso   1.000  H
  C120     1.0000 0.30270  0.16660  0.99580  Biso   1.000  C
  C121     1.0000 0.40870  0.15670  0.08200  Biso   1.000  C
  H101     1.0000 0.43990  0.12900  0.14140  Biso   1.000  H
  C122     1.0000 0.46820  0.18680  0.08260  Biso   1.000  C
  H102     1.0000 0.54120  0.17940  0.14480  Biso   1.000  H
  C123     1.0000 0.42890  0.22770  0.99740  Biso   1.000  C
  C124     1.0000 0.31870  0.23450  0.89930  Biso   1.000  C
  H103     1.0000 0.28580  0.26000  0.83130  Biso   1.000  H
  C125     1.0000 0.25700  0.20520  0.89920  Biso   1.000  C
  H104     1.0000 0.18310  0.21130  0.83320  Biso   1.000  H
  C126     1.0000 0.56720  0.29080  0.13850  Biso   1.000  C
  C127     1.0000 0.61840  0.33070  0.15120  Biso   1.000  C
  H105     1.0000 0.61550  0.33820  0.07740  Biso   1.000  H
  C128     1.0000 0.67400  0.35960  0.27390  Biso   1.000  C
  H106     1.0000 0.69590  0.38990  0.27230  Biso   1.000  H
  C129     1.0000 0.69860  0.34690  0.39510  Biso   1.000  C
  C130     1.0000 0.63750  0.30940  0.37600  Biso   1.000  C
  H107     1.0000 0.64050  0.30320  0.45070  Biso   1.000  H
  C131     1.0000 0.57120  0.28070  0.24700  Biso   1.000  C
  H108     1.0000 0.53100  0.25540  0.23590  Biso   1.000  H
  C132     1.0000 0.76490  0.37540  0.53140  Biso   1.000  C
  C133     1.0000 0.83630  0.40860  0.57000  Biso   1.000  C
  H109     1.0000 0.84310  0.41590  0.50620  Biso   1.000  H
  C134     1.0000 0.89540  0.43030  0.69580  Biso   1.000  C
  H110     1.0000 0.94160  0.45370  0.71410  Biso   1.000  H
  N8       1.0000 0.90060  0.42460  0.80080  Biso   1.000  N
  C135     1.0000 0.81850  0.39770  0.76000  Biso   1.000  C
  H111     1.0000 0.81110  0.39540  0.82460  Biso   1.000  H
  C136     1.0000 0.74450  0.37320  0.62300  Biso   1.000  C
  H112     1.0000 0.68560  0.35640  0.59260  Biso   1.000  H
  H113     1.0000 0.09700  0.13970  0.78360  Biso   1.000  H
  H114     1.0000 0.01290  0.07860  0.79220  Biso   1.000  H
  C137     1.0000 0.23460  0.07180  0.11700  Biso   1.000  C
  C138     1.0000 0.28940  0.10730  0.12200  Biso   1.000  C
  C139     1.0000 0.13490  0.12220  0.87120  Biso   1.000  C
  C140     1.0000 0.08520  0.08550  0.87790  Biso   1.000  C
  H115     1.0000 0.27070  0.05430  0.20430  Biso   1.000  H
  H116     1.0000 0.36020  0.11460  0.21180  Biso   1.000  H
  C141     1.0000 0.32130  0.15890  0.91200  Biso   1.000  C
  H117     1.0000 0.28860  0.13220  0.84830  Biso   1.000  H
  C142     1.0000 0.38380  0.18720  0.91290  Biso   1.000  C
  H118     1.0000 0.39620  0.17890  0.85560  Biso   1.000  H
  C143     1.0000 0.41710  0.23600  0.09180  Biso   1.000  C
  H119     1.0000 0.44860  0.26290  0.15440  Biso   1.000  H
  C144     1.0000 0.36100  0.20540  0.09070  Biso   1.000  C
  H120     1.0000 0.35990  0.21010  0.16170  Biso   1.000  H
  C145     1.0000 0.53760  0.33330  0.14470  Biso   1.000  C
  H121     1.0000 0.47010  0.34530  0.05860  Biso   1.000  H
  C146     1.0000 0.60010  0.36030  0.26920  Biso   1.000  C
  H122     1.0000 0.57310  0.38960  0.26680  Biso   1.000  H
  C147     1.0000 0.74680  0.31090  0.38200  Biso   1.000  C
  H123     1.0000 0.82170  0.30670  0.45490  Biso   1.000  H
  C148     1.0000 0.67760  0.28090  0.25140  Biso   1.000  C
  H124     1.0000 0.70630  0.25500  0.24250  Biso   1.000  H
  C149     1.0000 0.79650  0.42760  0.69530  Biso   1.000  C
  H125     1.0000 0.76540  0.44760  0.71480  Biso   1.000  H
  C150     1.0000 0.72990  0.40690  0.56800  Biso   1.000  C
  H126     1.0000 0.65620  0.41400  0.49960  Biso   1.000  H
  C151     1.0000 0.88040  0.37630  0.62860  Biso   1.000  C
  H127     1.0000 0.91120  0.36030  0.60210  Biso   1.000  H
  C152     1.0000 0.94530  0.40160  0.76300  Biso   1.000  C
  H128     1.0000 0.02010  0.40260  0.82700  Biso   1.000  H
  C153     1.0000 0.50000  0.74100  0.00000  Biso   1.000  C
  C154     1.0000 0.50000  0.25900  0.00000  Biso   1.000  C
  Cu1      1.0000 0.00000  0.54592  0.00000  Biso   1.000  Cu
  Cu2      1.0000 0.00000  0.45408  0.00000  Biso   1.000  Cu
  Cu3      1.0000 0.07056  0.00000  0.99990  Biso   1.000  Cu
  I1       1.0000 0.86669  0.00000  0.74430  Biso   1.000  I
  Cu4      1.0000 0.92944  0.00000  0.00010  Biso   1.000  Cu
  I2       1.0000 0.13331  0.00000  0.25570  Biso   1.000  I
  I3       1.0000 0.13968  0.50000  0.01274  Biso   1.000  I
  I4       1.0000 0.86032  0.50000  0.98726  Biso   1.000  I
  N9       1.0000 0.63410  0.43990  0.99800  Biso   1.000  N
  C155     1.0000 0.70750  0.41310  0.11600  Biso   1.000  C
  H129     1.0000 0.72340  0.41900  0.20150  Biso   1.000  H
  C156     1.0000 0.76180  0.37700  0.11960  Biso   1.000  C
  H130     1.0000 0.81280  0.35860  0.20590  Biso   1.000  H
  C157     1.0000 0.74130  0.36800  0.99720  Biso   1.000  C
  C158     1.0000 0.66810  0.39700  0.87700  Biso   1.000  C
  H131     1.0000 0.65200  0.39260  0.79100  Biso   1.000  H
  C159     1.0000 0.61870  0.43230  0.88400  Biso   1.000  C
  H132     1.0000 0.57050  0.45240  0.80090  Biso   1.000  H
  C160     1.0000 0.80270  0.33340  0.99580  Biso   1.000  C
  C161     1.0000 0.90870  0.34330  0.08200  Biso   1.000  C
  H133     1.0000 0.93990  0.37100  0.14140  Biso   1.000  H
  C162     1.0000 0.96820  0.31320  0.08260  Biso   1.000  C
  H134     1.0000 0.04120  0.32060  0.14480  Biso   1.000  H
  C163     1.0000 0.92890  0.27230  0.99740  Biso   1.000  C
  C164     1.0000 0.81870  0.26550  0.89930  Biso   1.000  C
  H135     1.0000 0.78580  0.24000  0.83130  Biso   1.000  H
  C165     1.0000 0.75700  0.29480  0.89920  Biso   1.000  C
  H136     1.0000 0.68310  0.28870  0.83320  Biso   1.000  H
  C166     1.0000 0.06720  0.20920  0.13850  Biso   1.000  C
  C167     1.0000 0.11840  0.16930  0.15120  Biso   1.000  C
  H137     1.0000 0.11550  0.16180  0.07740  Biso   1.000  H
  C168     1.0000 0.17400  0.14040  0.27390  Biso   1.000  C
  H138     1.0000 0.19590  0.11010  0.27230  Biso   1.000  H
  C169     1.0000 0.19860  0.15310  0.39510  Biso   1.000  C
  C170     1.0000 0.13750  0.19060  0.37600  Biso   1.000  C
  H139     1.0000 0.14050  0.19680  0.45070  Biso   1.000  H
  C171     1.0000 0.07120  0.21930  0.24700  Biso   1.000  C
  H140     1.0000 0.03100  0.24460  0.23590  Biso   1.000  H
  C172     1.0000 0.26490  0.12460  0.53140  Biso   1.000  C
  C173     1.0000 0.33630  0.09140  0.57000  Biso   1.000  C
  H141     1.0000 0.34310  0.08410  0.50620  Biso   1.000  H
  C174     1.0000 0.39540  0.06970  0.69580  Biso   1.000  C
  H142     1.0000 0.44160  0.04630  0.71410  Biso   1.000  H
  N10      1.0000 0.40060  0.07540  0.80080  Biso   1.000  N
  C175     1.0000 0.31850  0.10230  0.76000  Biso   1.000  C
  H143     1.0000 0.31110  0.10460  0.82460  Biso   1.000  H
  C176     1.0000 0.24450  0.12680  0.62300  Biso   1.000  C
  H144     1.0000 0.18560  0.14360  0.59260  Biso   1.000  H
  H145     1.0000 0.59700  0.36030  0.78360  Biso   1.000  H
  H146     1.0000 0.51290  0.42140  0.79220  Biso   1.000  H
  C177     1.0000 0.73460  0.42820  0.11700  Biso   1.000  C
  C178     1.0000 0.78940  0.39270  0.12200  Biso   1.000  C
  C179     1.0000 0.63490  0.37780  0.87120  Biso   1.000  C
  C180     1.0000 0.58520  0.41450  0.87790  Biso   1.000  C
  H147     1.0000 0.77070  0.44570  0.20430  Biso   1.000  H
  H148     1.0000 0.86020  0.38540  0.21180  Biso   1.000  H
  C181     1.0000 0.82130  0.34110  0.91200  Biso   1.000  C
  H149     1.0000 0.78860  0.36780  0.84830  Biso   1.000  H
  C182     1.0000 0.88380  0.31280  0.91290  Biso   1.000  C
  H150     1.0000 0.89620  0.32110  0.85560  Biso   1.000  H
  C183     1.0000 0.91710  0.26400  0.09180  Biso   1.000  C
  H151     1.0000 0.94860  0.23710  0.15440  Biso   1.000  H
  C184     1.0000 0.86100  0.29460  0.09070  Biso   1.000  C
  H152     1.0000 0.85990  0.28990  0.16170  Biso   1.000  H
  C185     1.0000 0.03760  0.16670  0.14470  Biso   1.000  C
  H153     1.0000 0.97010  0.15470  0.05860  Biso   1.000  H
  C186     1.0000 0.10010  0.13970  0.26920  Biso   1.000  C
  H154     1.0000 0.07310  0.11040  0.26680  Biso   1.000  H
  C187     1.0000 0.24680  0.18910  0.38200  Biso   1.000  C
  H155     1.0000 0.32170  0.19330  0.45490  Biso   1.000  H
  C188     1.0000 0.17760  0.21910  0.25140  Biso   1.000  C
  H156     1.0000 0.20630  0.24500  0.24250  Biso   1.000  H
  C189     1.0000 0.29650  0.07240  0.69530  Biso   1.000  C
  H157     1.0000 0.26540  0.05240  0.71480  Biso   1.000  H
  C190     1.0000 0.22990  0.09310  0.56800  Biso   1.000  C
  H158     1.0000 0.15620  0.08600  0.49960  Biso   1.000  H
  C191     1.0000 0.38040  0.12370  0.62860  Biso   1.000  C
  H159     1.0000 0.41120  0.13970  0.60210  Biso   1.000  H
  C192     1.0000 0.44530  0.09840  0.76300  Biso   1.000  C
  H160     1.0000 0.52010  0.09740  0.82700  Biso   1.000  H
  N11      1.0000 0.36590  0.43990  0.00200  Biso   1.000  N
  C193     1.0000 0.29250  0.41310  0.88400  Biso   1.000  C
  H161     1.0000 0.27660  0.41900  0.79850  Biso   1.000  H
  C194     1.0000 0.23820  0.37700  0.88040  Biso   1.000  C
  H162     1.0000 0.18720  0.35860  0.79410  Biso   1.000  H
  C195     1.0000 0.25870  0.36800  0.00280  Biso   1.000  C
  C196     1.0000 0.33190  0.39700  0.12300  Biso   1.000  C
  H163     1.0000 0.34800  0.39260  0.20900  Biso   1.000  H
  C197     1.0000 0.38130  0.43230  0.11600  Biso   1.000  C
  H164     1.0000 0.42950  0.45240  0.19910  Biso   1.000  H
  C198     1.0000 0.19730  0.33340  0.00420  Biso   1.000  C
  C199     1.0000 0.09130  0.34330  0.91800  Biso   1.000  C
  H165     1.0000 0.06010  0.37100  0.85860  Biso   1.000  H
  C200     1.0000 0.03180  0.31320  0.91740  Biso   1.000  C
  H166     1.0000 0.95880  0.32060  0.85520  Biso   1.000  H
  C201     1.0000 0.07110  0.27230  0.00260  Biso   1.000  C
  C202     1.0000 0.18130  0.26550  0.10070  Biso   1.000  C
  H167     1.0000 0.21420  0.24000  0.16870  Biso   1.000  H
  C203     1.0000 0.24300  0.29480  0.10080  Biso   1.000  C
  H168     1.0000 0.31690  0.28870  0.16680  Biso   1.000  H
  C204     1.0000 0.93280  0.20920  0.86150  Biso   1.000  C
  C205     1.0000 0.88160  0.16930  0.84880  Biso   1.000  C
  H169     1.0000 0.88450  0.16180  0.92260  Biso   1.000  H
  C206     1.0000 0.82600  0.14040  0.72610  Biso   1.000  C
  H170     1.0000 0.80410  0.11010  0.72770  Biso   1.000  H
  C207     1.0000 0.80140  0.15310  0.60490  Biso   1.000  C
  C208     1.0000 0.86250  0.19060  0.62400  Biso   1.000  C
  H171     1.0000 0.85950  0.19680  0.54930  Biso   1.000  H
  C209     1.0000 0.92880  0.21930  0.75300  Biso   1.000  C
  H172     1.0000 0.96900  0.24460  0.76410  Biso   1.000  H
  C210     1.0000 0.73510  0.12460  0.46860  Biso   1.000  C
  C211     1.0000 0.66370  0.09140  0.43000  Biso   1.000  C
  H173     1.0000 0.65690  0.08410  0.49380  Biso   1.000  H
  C212     1.0000 0.60460  0.06970  0.30420  Biso   1.000  C
  H174     1.0000 0.55840  0.04630  0.28590  Biso   1.000  H
  N12      1.0000 0.59940  0.07540  0.19920  Biso   1.000  N
  C213     1.0000 0.68150  0.10230  0.24000  Biso   1.000  C
  H175     1.0000 0.68890  0.10460  0.17540  Biso   1.000  H
  C214     1.0000 0.75550  0.12680  0.37700  Biso   1.000  C
  H176     1.0000 0.81440  0.14360  0.40740  Biso   1.000  H
  H177     1.0000 0.40300  0.36030  0.21640  Biso   1.000  H
  H178     1.0000 0.48710  0.42140  0.20780  Biso   1.000  H
  C215     1.0000 0.26540  0.42820  0.88300  Biso   1.000  C
  C216     1.0000 0.21060  0.39270  0.87800  Biso   1.000  C
  C217     1.0000 0.36510  0.37780  0.12880  Biso   1.000  C
  C218     1.0000 0.41480  0.41450  0.12210  Biso   1.000  C
  H179     1.0000 0.22930  0.44570  0.79570  Biso   1.000  H
  H180     1.0000 0.13980  0.38540  0.78820  Biso   1.000  H
  C219     1.0000 0.17870  0.34110  0.08800  Biso   1.000  C
  H181     1.0000 0.21140  0.36780  0.15170  Biso   1.000  H
  C220     1.0000 0.11620  0.31280  0.08710  Biso   1.000  C
  H182     1.0000 0.10380  0.32110  0.14440  Biso   1.000  H
  C221     1.0000 0.08290  0.26400  0.90820  Biso   1.000  C
  H183     1.0000 0.05140  0.23710  0.84560  Biso   1.000  H
  C222     1.0000 0.13900  0.29460  0.90930  Biso   1.000  C
  H184     1.0000 0.14010  0.28990  0.83830  Biso   1.000  H
  C223     1.0000 0.96240  0.16670  0.85530  Biso   1.000  C
  H185     1.0000 0.02990  0.15470  0.94140  Biso   1.000  H
  C224     1.0000 0.89990  0.13970  0.73080  Biso   1.000  C
  H186     1.0000 0.92690  0.11040  0.73320  Biso   1.000  H
  C225     1.0000 0.75320  0.18910  0.61800  Biso   1.000  C
  H187     1.0000 0.67830  0.19330  0.54510  Biso   1.000  H
  C226     1.0000 0.82240  0.21910  0.74860  Biso   1.000  C
  H188     1.0000 0.79370  0.24500  0.75750  Biso   1.000  H
  C227     1.0000 0.70350  0.07240  0.30470  Biso   1.000  C
  H189     1.0000 0.73460  0.05240  0.28520  Biso   1.000  H
  C228     1.0000 0.77010  0.09310  0.43200  Biso   1.000  C
  H190     1.0000 0.84380  0.08600  0.50040  Biso   1.000  H
  C229     1.0000 0.61960  0.12370  0.37140  Biso   1.000  C
  H191     1.0000 0.58880  0.13970  0.39790  Biso   1.000  H
  C230     1.0000 0.55470  0.09840  0.23700  Biso   1.000  C
  H192     1.0000 0.47990  0.09740  0.17300  Biso   1.000  H
  N13      1.0000 0.36590  0.56010  0.00200  Biso   1.000  N
  C231     1.0000 0.29250  0.58690  0.88400  Biso   1.000  C
  H193     1.0000 0.27660  0.58100  0.79850  Biso   1.000  H
  C232     1.0000 0.23820  0.62300  0.88040  Biso   1.000  C
  H194     1.0000 0.18720  0.64140  0.79410  Biso   1.000  H
  C233     1.0000 0.25870  0.63200  0.00280  Biso   1.000  C
  C234     1.0000 0.33190  0.60300  0.12300  Biso   1.000  C
  H195     1.0000 0.34800  0.60740  0.20900  Biso   1.000  H
  C235     1.0000 0.38130  0.56770  0.11600  Biso   1.000  C
  H196     1.0000 0.42950  0.54760  0.19910  Biso   1.000  H
  C236     1.0000 0.19730  0.66660  0.00420  Biso   1.000  C
  C237     1.0000 0.09130  0.65670  0.91800  Biso   1.000  C
  H197     1.0000 0.06010  0.62900  0.85860  Biso   1.000  H
  C238     1.0000 0.03180  0.68680  0.91740  Biso   1.000  C
  H198     1.0000 0.95880  0.67940  0.85520  Biso   1.000  H
  C239     1.0000 0.07110  0.72770  0.00260  Biso   1.000  C
  C240     1.0000 0.18130  0.73450  0.10070  Biso   1.000  C
  H199     1.0000 0.21420  0.76000  0.16870  Biso   1.000  H
  C241     1.0000 0.24300  0.70520  0.10080  Biso   1.000  C
  H200     1.0000 0.31690  0.71130  0.16680  Biso   1.000  H
  C242     1.0000 0.93280  0.79080  0.86150  Biso   1.000  C
  C243     1.0000 0.88160  0.83070  0.84880  Biso   1.000  C
  H201     1.0000 0.88450  0.83820  0.92260  Biso   1.000  H
  C244     1.0000 0.82600  0.85960  0.72610  Biso   1.000  C
  H202     1.0000 0.80410  0.88990  0.72770  Biso   1.000  H
  C245     1.0000 0.80140  0.84690  0.60490  Biso   1.000  C
  C246     1.0000 0.86250  0.80940  0.62400  Biso   1.000  C
  H203     1.0000 0.85950  0.80320  0.54930  Biso   1.000  H
  C247     1.0000 0.92880  0.78070  0.75300  Biso   1.000  C
  H204     1.0000 0.96900  0.75540  0.76410  Biso   1.000  H
  C248     1.0000 0.73510  0.87540  0.46860  Biso   1.000  C
  C249     1.0000 0.66370  0.90860  0.43000  Biso   1.000  C
  H205     1.0000 0.65690  0.91590  0.49380  Biso   1.000  H
  C250     1.0000 0.60460  0.93030  0.30420  Biso   1.000  C
  H206     1.0000 0.55840  0.95370  0.28590  Biso   1.000  H
  N14      1.0000 0.59940  0.92460  0.19920  Biso   1.000  N
  C251     1.0000 0.68150  0.89770  0.24000  Biso   1.000  C
  H207     1.0000 0.68890  0.89540  0.17540  Biso   1.000  H
  C252     1.0000 0.75550  0.87320  0.37700  Biso   1.000  C
  H208     1.0000 0.81440  0.85640  0.40740  Biso   1.000  H
  H209     1.0000 0.40300  0.63970  0.21640  Biso   1.000  H
  H210     1.0000 0.48710  0.57860  0.20780  Biso   1.000  H
  C253     1.0000 0.26540  0.57180  0.88300  Biso   1.000  C
  C254     1.0000 0.21060  0.60730  0.87800  Biso   1.000  C
  C255     1.0000 0.36510  0.62220  0.12880  Biso   1.000  C
  C256     1.0000 0.41480  0.58550  0.12210  Biso   1.000  C
  H211     1.0000 0.22930  0.55430  0.79570  Biso   1.000  H
  H212     1.0000 0.13980  0.61460  0.78820  Biso   1.000  H
  C257     1.0000 0.17870  0.65890  0.08800  Biso   1.000  C
  H213     1.0000 0.21140  0.63220  0.15170  Biso   1.000  H
  C258     1.0000 0.11620  0.68720  0.08710  Biso   1.000  C
  H214     1.0000 0.10380  0.67890  0.14440  Biso   1.000  H
  C259     1.0000 0.08290  0.73600  0.90820  Biso   1.000  C
  H215     1.0000 0.05140  0.76290  0.84560  Biso   1.000  H
  C260     1.0000 0.13900  0.70540  0.90930  Biso   1.000  C
  H216     1.0000 0.14010  0.71010  0.83830  Biso   1.000  H
  C261     1.0000 0.96240  0.83330  0.85530  Biso   1.000  C
  H217     1.0000 0.02990  0.84530  0.94140  Biso   1.000  H
  C262     1.0000 0.89990  0.86030  0.73080  Biso   1.000  C
  H218     1.0000 0.92690  0.88960  0.73320  Biso   1.000  H
  C263     1.0000 0.75320  0.81090  0.61800  Biso   1.000  C
  H219     1.0000 0.67830  0.80670  0.54510  Biso   1.000  H
  C264     1.0000 0.82240  0.78090  0.74860  Biso   1.000  C
  H220     1.0000 0.79370  0.75500  0.75750  Biso   1.000  H
  C265     1.0000 0.70350  0.92760  0.30470  Biso   1.000  C
  H221     1.0000 0.73460  0.94760  0.28520  Biso   1.000  H
  C266     1.0000 0.77010  0.90690  0.43200  Biso   1.000  C
  H222     1.0000 0.84380  0.91400  0.50040  Biso   1.000  H
  C267     1.0000 0.61960  0.87630  0.37140  Biso   1.000  C
  H223     1.0000 0.58880  0.86030  0.39790  Biso   1.000  H
  C268     1.0000 0.55470  0.90160  0.23700  Biso   1.000  C
  H224     1.0000 0.47990  0.90260  0.17300  Biso   1.000  H
  N15      1.0000 0.63410  0.56010  0.99800  Biso   1.000  N
  C269     1.0000 0.70750  0.58690  0.11600  Biso   1.000  C
  H225     1.0000 0.72340  0.58100  0.20150  Biso   1.000  H
  C270     1.0000 0.76180  0.62300  0.11960  Biso   1.000  C
  H226     1.0000 0.81280  0.64140  0.20590  Biso   1.000  H
  C271     1.0000 0.74130  0.63200  0.99720  Biso   1.000  C
  C272     1.0000 0.66810  0.60300  0.87700  Biso   1.000  C
  H227     1.0000 0.65200  0.60740  0.79100  Biso   1.000  H
  C273     1.0000 0.61870  0.56770  0.88400  Biso   1.000  C
  H228     1.0000 0.57050  0.54760  0.80090  Biso   1.000  H
  C274     1.0000 0.80270  0.66660  0.99580  Biso   1.000  C
  C275     1.0000 0.90870  0.65670  0.08200  Biso   1.000  C
  H229     1.0000 0.93990  0.62900  0.14140  Biso   1.000  H
  C276     1.0000 0.96820  0.68680  0.08260  Biso   1.000  C
  H230     1.0000 0.04120  0.67940  0.14480  Biso   1.000  H
  C277     1.0000 0.92890  0.72770  0.99740  Biso   1.000  C
  C278     1.0000 0.81870  0.73450  0.89930  Biso   1.000  C
  H231     1.0000 0.78580  0.76000  0.83130  Biso   1.000  H
  C279     1.0000 0.75700  0.70520  0.89920  Biso   1.000  C
  H232     1.0000 0.68310  0.71130  0.83320  Biso   1.000  H
  C280     1.0000 0.06720  0.79080  0.13850  Biso   1.000  C
  C281     1.0000 0.11840  0.83070  0.15120  Biso   1.000  C
  H233     1.0000 0.11550  0.83820  0.07740  Biso   1.000  H
  C282     1.0000 0.17400  0.85960  0.27390  Biso   1.000  C
  H234     1.0000 0.19590  0.88990  0.27230  Biso   1.000  H
  C283     1.0000 0.19860  0.84690  0.39510  Biso   1.000  C
  C284     1.0000 0.13750  0.80940  0.37600  Biso   1.000  C
  H235     1.0000 0.14050  0.80320  0.45070  Biso   1.000  H
  C285     1.0000 0.07120  0.78070  0.24700  Biso   1.000  C
  H236     1.0000 0.03100  0.75540  0.23590  Biso   1.000  H
  C286     1.0000 0.26490  0.87540  0.53140  Biso   1.000  C
  C287     1.0000 0.33630  0.90860  0.57000  Biso   1.000  C
  H237     1.0000 0.34310  0.91590  0.50620  Biso   1.000  H
  C288     1.0000 0.39540  0.93030  0.69580  Biso   1.000  C
  H238     1.0000 0.44160  0.95370  0.71410  Biso   1.000  H
  N16      1.0000 0.40060  0.92460  0.80080  Biso   1.000  N
  C289     1.0000 0.31850  0.89770  0.76000  Biso   1.000  C
  H239     1.0000 0.31110  0.89540  0.82460  Biso   1.000  H
  C290     1.0000 0.24450  0.87320  0.62300  Biso   1.000  C
  H240     1.0000 0.18560  0.85640  0.59260  Biso   1.000  H
  H241     1.0000 0.59700  0.63970  0.78360  Biso   1.000  H
  H242     1.0000 0.51290  0.57860  0.79220  Biso   1.000  H
  C291     1.0000 0.73460  0.57180  0.11700  Biso   1.000  C
  C292     1.0000 0.78940  0.60730  0.12200  Biso   1.000  C
  C293     1.0000 0.63490  0.62220  0.87120  Biso   1.000  C
  C294     1.0000 0.58520  0.58550  0.87790  Biso   1.000  C
  H243     1.0000 0.77070  0.55430  0.20430  Biso   1.000  H
  H244     1.0000 0.86020  0.61460  0.21180  Biso   1.000  H
  C295     1.0000 0.82130  0.65890  0.91200  Biso   1.000  C
  H245     1.0000 0.78860  0.63220  0.84830  Biso   1.000  H
  C296     1.0000 0.88380  0.68720  0.91290  Biso   1.000  C
  H246     1.0000 0.89620  0.67890  0.85560  Biso   1.000  H
  C297     1.0000 0.91710  0.73600  0.09180  Biso   1.000  C
  H247     1.0000 0.94860  0.76290  0.15440  Biso   1.000  H
  C298     1.0000 0.86100  0.70540  0.09070  Biso   1.000  C
  H248     1.0000 0.85990  0.71010  0.16170  Biso   1.000  H
  C299     1.0000 0.03760  0.83330  0.14470  Biso   1.000  C
  H249     1.0000 0.97010  0.84530  0.05860  Biso   1.000  H
  C300     1.0000 0.10010  0.86030  0.26920  Biso   1.000  C
  H250     1.0000 0.07310  0.88960  0.26680  Biso   1.000  H
  C301     1.0000 0.24680  0.81090  0.38200  Biso   1.000  C
  H251     1.0000 0.32170  0.80670  0.45490  Biso   1.000  H
  C302     1.0000 0.17760  0.78090  0.25140  Biso   1.000  C
  H252     1.0000 0.20630  0.75500  0.24250  Biso   1.000  H
  C303     1.0000 0.29650  0.92760  0.69530  Biso   1.000  C
  H253     1.0000 0.26540  0.94760  0.71480  Biso   1.000  H
  C304     1.0000 0.22990  0.90690  0.56800  Biso   1.000  C
  H254     1.0000 0.15620  0.91400  0.49960  Biso   1.000  H
  C305     1.0000 0.38040  0.87630  0.62860  Biso   1.000  C
  H255     1.0000 0.41120  0.86030  0.60210  Biso   1.000  H
  C306     1.0000 0.44530  0.90160  0.76300  Biso   1.000  C
  H256     1.0000 0.52010  0.90260  0.82700  Biso   1.000  H
  C307     1.0000 0.00000  0.24100  0.00000  Biso   1.000  C
  C308     1.0000 0.00000  0.75900  0.00000  Biso   1.000  C
  Cu5      1.0000 0.50000  0.04592  0.00000  Biso   1.000  Cu
  Cu6      1.0000 0.50000  0.95408  0.00000  Biso   1.000  Cu
  Cu7      1.0000 0.57056  0.50000  0.99990  Biso   1.000  Cu
  I5       1.0000 0.36669  0.50000  0.74430  Biso   1.000  I
  Cu8      1.0000 0.42944  0.50000  0.00010  Biso   1.000  Cu
  I6       1.0000 0.63331  0.50000  0.25570  Biso   1.000  I
  I7       1.0000 0.63968  0.00000  0.01274  Biso   1.000  I
  I8       1.0000 0.36032  0.00000  0.98726  Biso   1.000  I
