data_image0
_cell_length_a       13.1995
_cell_length_b       13.1995
_cell_length_c       27.7158
_cell_angle_alpha    90
_cell_angle_beta     90
_cell_angle_gamma    90

_symmetry_space_group_name_H-M    "P 1"
_symmetry_int_tables_number       1

loop_
  _symmetry_equiv_pos_as_xyz
  'x, y, z'

loop_
  _atom_site_label
  _atom_site_occupancy
  _atom_site_fract_x
  _atom_site_fract_y
  _atom_site_fract_z
  _atom_site_thermal_displace_type
  _atom_site_B_iso_or_equiv
  _atom_site_type_symbol
  C1       1.0000 0.26590  0.87310  0.44160  Biso   1.000  C
  H1       1.0000 0.23280  0.91570  0.46420  Biso   1.000  H
  C2       1.0000 0.20710  0.82160  0.40660  Biso   1.000  C
  H2       1.0000 0.13650  0.83440  0.40420  Biso   1.000  H
  C3       1.0000 0.35560  0.74520  0.37820  Biso   1.000  C
  H3       1.0000 0.39030  0.69940  0.35760  Biso   1.000  H
  C4       1.0000 0.40980  0.80420  0.41050  Biso   1.000  C
  H4       1.0000 0.48170  0.80260  0.40940  Biso   1.000  H
  C5       1.0000 0.17350  0.58810  0.35340  Biso   1.000  C
  H5       1.0000 0.20480  0.55880  0.38090  Biso   1.000  H
  C6       1.0000 0.11050  0.52820  0.32360  Biso   1.000  C
  H6       1.0000 0.09760  0.45980  0.33220  Biso   1.000  H
  C7       1.0000 0.08550  0.67160  0.27190  Biso   1.000  C
  H7       1.0000 0.05430  0.70240  0.24470  Biso   1.000  H
  C8       1.0000 0.14960  0.72880  0.30200  Biso   1.000  C
  H8       1.0000 0.16480  0.79680  0.29340  Biso   1.000  H
  C9       1.0000 0.73410  0.12690  0.44160  Biso   1.000  C
  H9       1.0000 0.76720  0.08430  0.46420  Biso   1.000  H
  C10      1.0000 0.79290  0.17840  0.40660  Biso   1.000  C
  H10      1.0000 0.86350  0.16560  0.40420  Biso   1.000  H
  C11      1.0000 0.64440  0.25480  0.37820  Biso   1.000  C
  H11      1.0000 0.60970  0.30060  0.35760  Biso   1.000  H
  C12      1.0000 0.59020  0.19580  0.41050  Biso   1.000  C
  H12      1.0000 0.51830  0.19740  0.40940  Biso   1.000  H
  C13      1.0000 0.82650  0.41190  0.35340  Biso   1.000  C
  H13      1.0000 0.79520  0.44120  0.38090  Biso   1.000  H
  C14      1.0000 0.88950  0.47180  0.32360  Biso   1.000  C
  H14      1.0000 0.90240  0.54020  0.33220  Biso   1.000  H
  C15      1.0000 0.91450  0.32840  0.27190  Biso   1.000  C
  H15      1.0000 0.94570  0.29760  0.24470  Biso   1.000  H
  C16      1.0000 0.85040  0.27120  0.30200  Biso   1.000  C
  H16      1.0000 0.83520  0.20320  0.29340  Biso   1.000  H
  C17      1.0000 0.62690  0.76590  0.94160  Biso   1.000  C
  H17      1.0000 0.58430  0.73280  0.96420  Biso   1.000  H
  C18      1.0000 0.67840  0.70710  0.90660  Biso   1.000  C
  H18      1.0000 0.66560  0.63650  0.90420  Biso   1.000  H
  C19      1.0000 0.75480  0.85560  0.87820  Biso   1.000  C
  H19      1.0000 0.80060  0.89030  0.85760  Biso   1.000  H
  C20      1.0000 0.69580  0.90980  0.91050  Biso   1.000  C
  H20      1.0000 0.69740  0.98170  0.90940  Biso   1.000  H
  C21      1.0000 0.91190  0.67350  0.85340  Biso   1.000  C
  H21      1.0000 0.94120  0.70480  0.88090  Biso   1.000  H
  C22      1.0000 0.97180  0.61050  0.82360  Biso   1.000  C
  H22      1.0000 0.04020  0.59760  0.83220  Biso   1.000  H
  C23      1.0000 0.82840  0.58550  0.77190  Biso   1.000  C
  H23      1.0000 0.79760  0.55430  0.74470  Biso   1.000  H
  C24      1.0000 0.77120  0.64960  0.80200  Biso   1.000  C
  H24      1.0000 0.70320  0.66480  0.79340  Biso   1.000  H
  C25      1.0000 0.37310  0.23410  0.94160  Biso   1.000  C
  H25      1.0000 0.41570  0.26720  0.96420  Biso   1.000  H
  C26      1.0000 0.32160  0.29290  0.90660  Biso   1.000  C
  H26      1.0000 0.33440  0.36350  0.90420  Biso   1.000  H
  C27      1.0000 0.24520  0.14440  0.87820  Biso   1.000  C
  H27      1.0000 0.19940  0.10970  0.85760  Biso   1.000  H
  C28      1.0000 0.30420  0.09020  0.91050  Biso   1.000  C
  H28      1.0000 0.30260  0.01830  0.90940  Biso   1.000  H
  C29      1.0000 0.08810  0.32650  0.85340  Biso   1.000  C
  H29      1.0000 0.05880  0.29520  0.88090  Biso   1.000  H
  C30      1.0000 0.02820  0.38950  0.82360  Biso   1.000  C
  H30      1.0000 0.95980  0.40240  0.83220  Biso   1.000  H
  C31      1.0000 0.17160  0.41450  0.77190  Biso   1.000  C
  H31      1.0000 0.20240  0.44570  0.74470  Biso   1.000  H
  C32      1.0000 0.22880  0.35040  0.80200  Biso   1.000  C
  H32      1.0000 0.29680  0.33520  0.79340  Biso   1.000  H
  C33      1.0000 0.73410  0.87310  0.05840  Biso   1.000  C
  H33      1.0000 0.76720  0.91570  0.03580  Biso   1.000  H
  C34      1.0000 0.79290  0.82160  0.09340  Biso   1.000  C
  H34      1.0000 0.86350  0.83440  0.09580  Biso   1.000  H
  C35      1.0000 0.64440  0.74520  0.12180  Biso   1.000  C
  H35      1.0000 0.60970  0.69940  0.14240  Biso   1.000  H
  C36      1.0000 0.59020  0.80420  0.08950  Biso   1.000  C
  H36      1.0000 0.51830  0.80260  0.09060  Biso   1.000  H
  C37      1.0000 0.82650  0.58810  0.14660  Biso   1.000  C
  H37      1.0000 0.79520  0.55880  0.11910  Biso   1.000  H
  C38      1.0000 0.88950  0.52820  0.17640  Biso   1.000  C
  H38      1.0000 0.90240  0.45980  0.16780  Biso   1.000  H
  C39      1.0000 0.91450  0.67160  0.22810  Biso   1.000  C
  H39      1.0000 0.94570  0.70240  0.25530  Biso   1.000  H
  C40      1.0000 0.85040  0.72880  0.19800  Biso   1.000  C
  H40      1.0000 0.83520  0.79680  0.20660  Biso   1.000  H
  C41      1.0000 0.26590  0.12690  0.05840  Biso   1.000  C
  H41      1.0000 0.23280  0.08430  0.03580  Biso   1.000  H
  C42      1.0000 0.20710  0.17840  0.09340  Biso   1.000  C
  H42      1.0000 0.13650  0.16560  0.09580  Biso   1.000  H
  C43      1.0000 0.35560  0.25480  0.12180  Biso   1.000  C
  H43      1.0000 0.39030  0.30060  0.14240  Biso   1.000  H
  C44      1.0000 0.40980  0.19580  0.08950  Biso   1.000  C
  H44      1.0000 0.48170  0.19740  0.09060  Biso   1.000  H
  C45      1.0000 0.17350  0.41190  0.14660  Biso   1.000  C
  H45      1.0000 0.20480  0.44120  0.11910  Biso   1.000  H
  C46      1.0000 0.11050  0.47180  0.17640  Biso   1.000  C
  H46      1.0000 0.09760  0.54020  0.16780  Biso   1.000  H
  C47      1.0000 0.08550  0.32840  0.22810  Biso   1.000  C
  H47      1.0000 0.05430  0.29760  0.25530  Biso   1.000  H
  C48      1.0000 0.14960  0.27120  0.19800  Biso   1.000  C
  H48      1.0000 0.16480  0.20320  0.20660  Biso   1.000  H
  C49      1.0000 0.37310  0.76590  0.55840  Biso   1.000  C
  H49      1.0000 0.41570  0.73280  0.53580  Biso   1.000  H
  C50      1.0000 0.32160  0.70710  0.59340  Biso   1.000  C
  H50      1.0000 0.33440  0.63650  0.59580  Biso   1.000  H
  C51      1.0000 0.24520  0.85560  0.62180  Biso   1.000  C
  H51      1.0000 0.19940  0.89030  0.64240  Biso   1.000  H
  C52      1.0000 0.30420  0.90980  0.58950  Biso   1.000  C
  H52      1.0000 0.30260  0.98170  0.59060  Biso   1.000  H
  C53      1.0000 0.08810  0.67350  0.64660  Biso   1.000  C
  H53      1.0000 0.05880  0.70480  0.61910  Biso   1.000  H
  C54      1.0000 0.02820  0.61050  0.67640  Biso   1.000  C
  H54      1.0000 0.95980  0.59760  0.66780  Biso   1.000  H
  C55      1.0000 0.17160  0.58550  0.72810  Biso   1.000  C
  H55      1.0000 0.20240  0.55430  0.75530  Biso   1.000  H
  C56      1.0000 0.22880  0.64960  0.69800  Biso   1.000  C
  H56      1.0000 0.29680  0.66480  0.70660  Biso   1.000  H
  C57      1.0000 0.62690  0.23410  0.55840  Biso   1.000  C
  H57      1.0000 0.58430  0.26720  0.53580  Biso   1.000  H
  C58      1.0000 0.67840  0.29290  0.59340  Biso   1.000  C
  H58      1.0000 0.66560  0.36350  0.59580  Biso   1.000  H
  C59      1.0000 0.75480  0.14440  0.62180  Biso   1.000  C
  H59      1.0000 0.80060  0.10970  0.64240  Biso   1.000  H
  C60      1.0000 0.69580  0.09020  0.58950  Biso   1.000  C
  H60      1.0000 0.69740  0.01830  0.59060  Biso   1.000  H
  C61      1.0000 0.91190  0.32650  0.64660  Biso   1.000  C
  H61      1.0000 0.94120  0.29520  0.61910  Biso   1.000  H
  C62      1.0000 0.97180  0.38950  0.67640  Biso   1.000  C
  H62      1.0000 0.04020  0.40240  0.66780  Biso   1.000  H
  C63      1.0000 0.82840  0.41450  0.72810  Biso   1.000  C
  H63      1.0000 0.79760  0.44570  0.75530  Biso   1.000  H
  C64      1.0000 0.77120  0.35040  0.69800  Biso   1.000  C
  H64      1.0000 0.70320  0.33520  0.70660  Biso   1.000  H
  C65      1.0000 0.73410  0.12690  0.55840  Biso   1.000  C
  H65      1.0000 0.76720  0.08430  0.53580  Biso   1.000  H
  C66      1.0000 0.79290  0.17840  0.59340  Biso   1.000  C
  H66      1.0000 0.86350  0.16560  0.59580  Biso   1.000  H
  C67      1.0000 0.64440  0.25480  0.62180  Biso   1.000  C
  H67      1.0000 0.60970  0.30060  0.64240  Biso   1.000  H
  C68      1.0000 0.59020  0.19580  0.58950  Biso   1.000  C
  H68      1.0000 0.51830  0.19740  0.59060  Biso   1.000  H
  C69      1.0000 0.82650  0.41190  0.64660  Biso   1.000  C
  H69      1.0000 0.79520  0.44120  0.61910  Biso   1.000  H
  C70      1.0000 0.88950  0.47180  0.67640  Biso   1.000  C
  H70      1.0000 0.90240  0.54020  0.66780  Biso   1.000  H
  C71      1.0000 0.91450  0.32840  0.72810  Biso   1.000  C
  H71      1.0000 0.94570  0.29760  0.75530  Biso   1.000  H
  C72      1.0000 0.85040  0.27120  0.69800  Biso   1.000  C
  H72      1.0000 0.83520  0.20320  0.70660  Biso   1.000  H
  C73      1.0000 0.26590  0.87310  0.55840  Biso   1.000  C
  H73      1.0000 0.23280  0.91570  0.53580  Biso   1.000  H
  C74      1.0000 0.20710  0.82160  0.59340  Biso   1.000  C
  H74      1.0000 0.13650  0.83440  0.59580  Biso   1.000  H
  C75      1.0000 0.35560  0.74520  0.62180  Biso   1.000  C
  H75      1.0000 0.39030  0.69940  0.64240  Biso   1.000  H
  C76      1.0000 0.40980  0.80420  0.58950  Biso   1.000  C
  H76      1.0000 0.48170  0.80260  0.59060  Biso   1.000  H
  C77      1.0000 0.17350  0.58810  0.64660  Biso   1.000  C
  H77      1.0000 0.20480  0.55880  0.61910  Biso   1.000  H
  C78      1.0000 0.11050  0.52820  0.67640  Biso   1.000  C
  H78      1.0000 0.09760  0.45980  0.66780  Biso   1.000  H
  C79      1.0000 0.08550  0.67160  0.72810  Biso   1.000  C
  H79      1.0000 0.05430  0.70240  0.75530  Biso   1.000  H
  C80      1.0000 0.14960  0.72880  0.69800  Biso   1.000  C
  H80      1.0000 0.16480  0.79680  0.70660  Biso   1.000  H
  C81      1.0000 0.37310  0.23410  0.05840  Biso   1.000  C
  H81      1.0000 0.41570  0.26720  0.03580  Biso   1.000  H
  C82      1.0000 0.32160  0.29290  0.09340  Biso   1.000  C
  H82      1.0000 0.33440  0.36350  0.09580  Biso   1.000  H
  C83      1.0000 0.24520  0.14440  0.12180  Biso   1.000  C
  H83      1.0000 0.19940  0.10970  0.14240  Biso   1.000  H
  C84      1.0000 0.30420  0.09020  0.08950  Biso   1.000  C
  H84      1.0000 0.30260  0.01830  0.09060  Biso   1.000  H
  C85      1.0000 0.08810  0.32650  0.14660  Biso   1.000  C
  H85      1.0000 0.05880  0.29520  0.11910  Biso   1.000  H
  C86      1.0000 0.02820  0.38950  0.17640  Biso   1.000  C
  H86      1.0000 0.95980  0.40240  0.16780  Biso   1.000  H
  C87      1.0000 0.17160  0.41450  0.22810  Biso   1.000  C
  H87      1.0000 0.20240  0.44570  0.25530  Biso   1.000  H
  C88      1.0000 0.22880  0.35040  0.19800  Biso   1.000  C
  H88      1.0000 0.29680  0.33520  0.20660  Biso   1.000  H
  C89      1.0000 0.62690  0.76590  0.05840  Biso   1.000  C
  H89      1.0000 0.58430  0.73280  0.03580  Biso   1.000  H
  C90      1.0000 0.67840  0.70710  0.09340  Biso   1.000  C
  H90      1.0000 0.66560  0.63650  0.09580  Biso   1.000  H
  C91      1.0000 0.75480  0.85560  0.12180  Biso   1.000  C
  H91      1.0000 0.80060  0.89030  0.14240  Biso   1.000  H
  C92      1.0000 0.69580  0.90980  0.08950  Biso   1.000  C
  H92      1.0000 0.69740  0.98170  0.09060  Biso   1.000  H
  C93      1.0000 0.91190  0.67350  0.14660  Biso   1.000  C
  H93      1.0000 0.94120  0.70480  0.11910  Biso   1.000  H
  C94      1.0000 0.97180  0.61050  0.17640  Biso   1.000  C
  H94      1.0000 0.04020  0.59760  0.16780  Biso   1.000  H
  C95      1.0000 0.82840  0.58550  0.22810  Biso   1.000  C
  H95      1.0000 0.79760  0.55430  0.25530  Biso   1.000  H
  C96      1.0000 0.77120  0.64960  0.19800  Biso   1.000  C
  H96      1.0000 0.70320  0.66480  0.20660  Biso   1.000  H
  C97      1.0000 0.26590  0.12690  0.94160  Biso   1.000  C
  H97      1.0000 0.23280  0.08430  0.96420  Biso   1.000  H
  C98      1.0000 0.20710  0.17840  0.90660  Biso   1.000  C
  H98      1.0000 0.13650  0.16560  0.90420  Biso   1.000  H
  C99      1.0000 0.35560  0.25480  0.87820  Biso   1.000  C
  H99      1.0000 0.39030  0.30060  0.85760  Biso   1.000  H
  C100     1.0000 0.40980  0.19580  0.91050  Biso   1.000  C
  H100     1.0000 0.48170  0.19740  0.90940  Biso   1.000  H
  C101     1.0000 0.17350  0.41190  0.85340  Biso   1.000  C
  H101     1.0000 0.20480  0.44120  0.88090  Biso   1.000  H
  C102     1.0000 0.11050  0.47180  0.82360  Biso   1.000  C
  H102     1.0000 0.09760  0.54020  0.83220  Biso   1.000  H
  C103     1.0000 0.08550  0.32840  0.77190  Biso   1.000  C
  H103     1.0000 0.05430  0.29760  0.74470  Biso   1.000  H
  C104     1.0000 0.14960  0.27120  0.80200  Biso   1.000  C
  H104     1.0000 0.16480  0.20320  0.79340  Biso   1.000  H
  C105     1.0000 0.73410  0.87310  0.94160  Biso   1.000  C
  H105     1.0000 0.76720  0.91570  0.96420  Biso   1.000  H
  C106     1.0000 0.79290  0.82160  0.90660  Biso   1.000  C
  H106     1.0000 0.86350  0.83440  0.90420  Biso   1.000  H
  C107     1.0000 0.64440  0.74520  0.87820  Biso   1.000  C
  H107     1.0000 0.60970  0.69940  0.85760  Biso   1.000  H
  C108     1.0000 0.59020  0.80420  0.91050  Biso   1.000  C
  H108     1.0000 0.51830  0.80260  0.90940  Biso   1.000  H
  C109     1.0000 0.82650  0.58810  0.85340  Biso   1.000  C
  H109     1.0000 0.79520  0.55880  0.88090  Biso   1.000  H
  C110     1.0000 0.88950  0.52820  0.82360  Biso   1.000  C
  H110     1.0000 0.90240  0.45980  0.83220  Biso   1.000  H
  C111     1.0000 0.91450  0.67160  0.77190  Biso   1.000  C
  H111     1.0000 0.94570  0.70240  0.74470  Biso   1.000  H
  C112     1.0000 0.85040  0.72880  0.80200  Biso   1.000  C
  H112     1.0000 0.83520  0.79680  0.79340  Biso   1.000  H
  C113     1.0000 0.62690  0.23410  0.44160  Biso   1.000  C
  H113     1.0000 0.58430  0.26720  0.46420  Biso   1.000  H
  C114     1.0000 0.67840  0.29290  0.40660  Biso   1.000  C
  H114     1.0000 0.66560  0.36350  0.40420  Biso   1.000  H
  C115     1.0000 0.75480  0.14440  0.37820  Biso   1.000  C
  H115     1.0000 0.80060  0.10970  0.35760  Biso   1.000  H
  C116     1.0000 0.69580  0.09020  0.41050  Biso   1.000  C
  H116     1.0000 0.69740  0.01830  0.40940  Biso   1.000  H
  C117     1.0000 0.91190  0.32650  0.35340  Biso   1.000  C
  H117     1.0000 0.94120  0.29520  0.38090  Biso   1.000  H
  C118     1.0000 0.97180  0.38950  0.32360  Biso   1.000  C
  H118     1.0000 0.04020  0.40240  0.33220  Biso   1.000  H
  C119     1.0000 0.82840  0.41450  0.27190  Biso   1.000  C
  H119     1.0000 0.79760  0.44570  0.24470  Biso   1.000  H
  C120     1.0000 0.77120  0.35040  0.30200  Biso   1.000  C
  H120     1.0000 0.70320  0.33520  0.29340  Biso   1.000  H
  C121     1.0000 0.37310  0.76590  0.44160  Biso   1.000  C
  H121     1.0000 0.41570  0.73280  0.46420  Biso   1.000  H
  C122     1.0000 0.32160  0.70710  0.40660  Biso   1.000  C
  H122     1.0000 0.33440  0.63650  0.40420  Biso   1.000  H
  C123     1.0000 0.24520  0.85560  0.37820  Biso   1.000  C
  H123     1.0000 0.19940  0.89030  0.35760  Biso   1.000  H
  C124     1.0000 0.30420  0.90980  0.41050  Biso   1.000  C
  H124     1.0000 0.30260  0.98170  0.40940  Biso   1.000  H
  C125     1.0000 0.08810  0.67350  0.35340  Biso   1.000  C
  H125     1.0000 0.05880  0.70480  0.38090  Biso   1.000  H
  C126     1.0000 0.02820  0.61050  0.32360  Biso   1.000  C
  H126     1.0000 0.95980  0.59760  0.33220  Biso   1.000  H
  C127     1.0000 0.17160  0.58550  0.27190  Biso   1.000  C
  H127     1.0000 0.20240  0.55430  0.24470  Biso   1.000  H
  C128     1.0000 0.22880  0.64960  0.30200  Biso   1.000  C
  H128     1.0000 0.29680  0.66480  0.29340  Biso   1.000  H
  N1       1.0000 0.36390  0.86390  0.44350  Biso   1.000  N
  C129     1.0000 0.25260  0.75260  0.37590  Biso   1.000  C
  C130     1.0000 0.19010  0.69010  0.34250  Biso   1.000  C
  C131     1.0000 0.06740  0.56740  0.28230  Biso   1.000  C
  N2       1.0000 0.63610  0.13610  0.44350  Biso   1.000  N
  C132     1.0000 0.74740  0.24740  0.37590  Biso   1.000  C
  C133     1.0000 0.80990  0.30990  0.34250  Biso   1.000  C
  C134     1.0000 0.93260  0.43260  0.28230  Biso   1.000  C
  N3       1.0000 0.36390  0.13610  0.94350  Biso   1.000  N
  C135     1.0000 0.25260  0.24740  0.87590  Biso   1.000  C
  C136     1.0000 0.19010  0.30990  0.84250  Biso   1.000  C
  C137     1.0000 0.06740  0.43260  0.78230  Biso   1.000  C
  N4       1.0000 0.63610  0.86390  0.05650  Biso   1.000  N
  C138     1.0000 0.74740  0.75260  0.12410  Biso   1.000  C
  C139     1.0000 0.80990  0.69010  0.15750  Biso   1.000  C
  C140     1.0000 0.93260  0.56740  0.21770  Biso   1.000  C
  N5       1.0000 0.36390  0.13610  0.05650  Biso   1.000  N
  C141     1.0000 0.25260  0.24740  0.12410  Biso   1.000  C
  C142     1.0000 0.19010  0.30990  0.15750  Biso   1.000  C
  C143     1.0000 0.06740  0.43260  0.21770  Biso   1.000  C
  N6       1.0000 0.63610  0.13610  0.55650  Biso   1.000  N
  C144     1.0000 0.74740  0.24740  0.62410  Biso   1.000  C
  C145     1.0000 0.80990  0.30990  0.65750  Biso   1.000  C
  C146     1.0000 0.93260  0.43260  0.71770  Biso   1.000  C
  N7       1.0000 0.36390  0.86390  0.55650  Biso   1.000  N
  C147     1.0000 0.25260  0.75260  0.62410  Biso   1.000  C
  C148     1.0000 0.19010  0.69010  0.65750  Biso   1.000  C
  C149     1.0000 0.06740  0.56740  0.71770  Biso   1.000  C
  N8       1.0000 0.63610  0.86390  0.94350  Biso   1.000  N
  C150     1.0000 0.74740  0.75260  0.87590  Biso   1.000  C
  C151     1.0000 0.80990  0.69010  0.84250  Biso   1.000  C
  C152     1.0000 0.93260  0.56740  0.78230  Biso   1.000  C
  C153     1.0000 0.00000  0.50000  0.25000  Biso   1.000  C
  C154     1.0000 0.00000  0.50000  0.75000  Biso   1.000  C
  Cu1      1.0000 0.43388  0.93388  0.50000  Biso   1.000  Cu
  Cu2      1.0000 0.56612  0.06612  0.50000  Biso   1.000  Cu
  Cu3      1.0000 0.56612  0.93388  0.00000  Biso   1.000  Cu
  Cu4      1.0000 0.43388  0.06612  0.00000  Biso   1.000  Cu
  I1       1.0000 0.37945  0.12055  0.50000  Biso   1.000  I
  I2       1.0000 0.62055  0.87945  0.50000  Biso   1.000  I
  I3       1.0000 0.62055  0.12055  0.00000  Biso   1.000  I
  I4       1.0000 0.37945  0.87945  0.00000  Biso   1.000  I
  C155     1.0000 0.76590  0.37310  0.94160  Biso   1.000  C
  H129     1.0000 0.73280  0.41570  0.96420  Biso   1.000  H
  C156     1.0000 0.70710  0.32160  0.90660  Biso   1.000  C
  H130     1.0000 0.63650  0.33440  0.90420  Biso   1.000  H
  C157     1.0000 0.85560  0.24520  0.87820  Biso   1.000  C
  H131     1.0000 0.89030  0.19940  0.85760  Biso   1.000  H
  C158     1.0000 0.90980  0.30420  0.91050  Biso   1.000  C
  H132     1.0000 0.98170  0.30260  0.90940  Biso   1.000  H
  C159     1.0000 0.67350  0.08810  0.85340  Biso   1.000  C
  H133     1.0000 0.70480  0.05880  0.88090  Biso   1.000  H
  C160     1.0000 0.61050  0.02820  0.82360  Biso   1.000  C
  H134     1.0000 0.59760  0.95980  0.83220  Biso   1.000  H
  C161     1.0000 0.58550  0.17160  0.77190  Biso   1.000  C
  H135     1.0000 0.55430  0.20240  0.74470  Biso   1.000  H
  C162     1.0000 0.64960  0.22880  0.80200  Biso   1.000  C
  H136     1.0000 0.66480  0.29680  0.79340  Biso   1.000  H
  C163     1.0000 0.23410  0.62690  0.94160  Biso   1.000  C
  H137     1.0000 0.26720  0.58430  0.96420  Biso   1.000  H
  C164     1.0000 0.29290  0.67840  0.90660  Biso   1.000  C
  H138     1.0000 0.36350  0.66560  0.90420  Biso   1.000  H
  C165     1.0000 0.14440  0.75480  0.87820  Biso   1.000  C
  H139     1.0000 0.10970  0.80060  0.85760  Biso   1.000  H
  C166     1.0000 0.09020  0.69580  0.91050  Biso   1.000  C
  H140     1.0000 0.01830  0.69740  0.90940  Biso   1.000  H
  C167     1.0000 0.32650  0.91190  0.85340  Biso   1.000  C
  H141     1.0000 0.29520  0.94120  0.88090  Biso   1.000  H
  C168     1.0000 0.38950  0.97180  0.82360  Biso   1.000  C
  H142     1.0000 0.40240  0.04020  0.83220  Biso   1.000  H
  C169     1.0000 0.41450  0.82840  0.77190  Biso   1.000  C
  H143     1.0000 0.44570  0.79760  0.74470  Biso   1.000  H
  C170     1.0000 0.35040  0.77120  0.80200  Biso   1.000  C
  H144     1.0000 0.33520  0.70320  0.79340  Biso   1.000  H
  C171     1.0000 0.12690  0.26590  0.44160  Biso   1.000  C
  H145     1.0000 0.08430  0.23280  0.46420  Biso   1.000  H
  C172     1.0000 0.17840  0.20710  0.40660  Biso   1.000  C
  H146     1.0000 0.16560  0.13650  0.40420  Biso   1.000  H
  C173     1.0000 0.25480  0.35560  0.37820  Biso   1.000  C
  H147     1.0000 0.30060  0.39030  0.35760  Biso   1.000  H
  C174     1.0000 0.19580  0.40980  0.41050  Biso   1.000  C
  H148     1.0000 0.19740  0.48170  0.40940  Biso   1.000  H
  C175     1.0000 0.41190  0.17350  0.35340  Biso   1.000  C
  H149     1.0000 0.44120  0.20480  0.38090  Biso   1.000  H
  C176     1.0000 0.47180  0.11050  0.32360  Biso   1.000  C
  H150     1.0000 0.54020  0.09760  0.33220  Biso   1.000  H
  C177     1.0000 0.32840  0.08550  0.27190  Biso   1.000  C
  H151     1.0000 0.29760  0.05430  0.24470  Biso   1.000  H
  C178     1.0000 0.27120  0.14960  0.30200  Biso   1.000  C
  H152     1.0000 0.20320  0.16480  0.29340  Biso   1.000  H
  C179     1.0000 0.87310  0.73410  0.44160  Biso   1.000  C
  H153     1.0000 0.91570  0.76720  0.46420  Biso   1.000  H
  C180     1.0000 0.82160  0.79290  0.40660  Biso   1.000  C
  H154     1.0000 0.83440  0.86350  0.40420  Biso   1.000  H
  C181     1.0000 0.74520  0.64440  0.37820  Biso   1.000  C
  H155     1.0000 0.69940  0.60970  0.35760  Biso   1.000  H
  C182     1.0000 0.80420  0.59020  0.41050  Biso   1.000  C
  H156     1.0000 0.80260  0.51830  0.40940  Biso   1.000  H
  C183     1.0000 0.58810  0.82650  0.35340  Biso   1.000  C
  H157     1.0000 0.55880  0.79520  0.38090  Biso   1.000  H
  C184     1.0000 0.52820  0.88950  0.32360  Biso   1.000  C
  H158     1.0000 0.45980  0.90240  0.33220  Biso   1.000  H
  C185     1.0000 0.67160  0.91450  0.27190  Biso   1.000  C
  H159     1.0000 0.70240  0.94570  0.24470  Biso   1.000  H
  C186     1.0000 0.72880  0.85040  0.30200  Biso   1.000  C
  H160     1.0000 0.79680  0.83520  0.29340  Biso   1.000  H
  C187     1.0000 0.23410  0.37310  0.55840  Biso   1.000  C
  H161     1.0000 0.26720  0.41570  0.53580  Biso   1.000  H
  C188     1.0000 0.29290  0.32160  0.59340  Biso   1.000  C
  H162     1.0000 0.36350  0.33440  0.59580  Biso   1.000  H
  C189     1.0000 0.14440  0.24520  0.62180  Biso   1.000  C
  H163     1.0000 0.10970  0.19940  0.64240  Biso   1.000  H
  C190     1.0000 0.09020  0.30420  0.58950  Biso   1.000  C
  H164     1.0000 0.01830  0.30260  0.59060  Biso   1.000  H
  C191     1.0000 0.32650  0.08810  0.64660  Biso   1.000  C
  H165     1.0000 0.29520  0.05880  0.61910  Biso   1.000  H
  C192     1.0000 0.38950  0.02820  0.67640  Biso   1.000  C
  H166     1.0000 0.40240  0.95980  0.66780  Biso   1.000  H
  C193     1.0000 0.41450  0.17160  0.72810  Biso   1.000  C
  H167     1.0000 0.44570  0.20240  0.75530  Biso   1.000  H
  C194     1.0000 0.35040  0.22880  0.69800  Biso   1.000  C
  H168     1.0000 0.33520  0.29680  0.70660  Biso   1.000  H
  C195     1.0000 0.76590  0.62690  0.55840  Biso   1.000  C
  H169     1.0000 0.73280  0.58430  0.53580  Biso   1.000  H
  C196     1.0000 0.70710  0.67840  0.59340  Biso   1.000  C
  H170     1.0000 0.63650  0.66560  0.59580  Biso   1.000  H
  C197     1.0000 0.85560  0.75480  0.62180  Biso   1.000  C
  H171     1.0000 0.89030  0.80060  0.64240  Biso   1.000  H
  C198     1.0000 0.90980  0.69580  0.58950  Biso   1.000  C
  H172     1.0000 0.98170  0.69740  0.59060  Biso   1.000  H
  C199     1.0000 0.67350  0.91190  0.64660  Biso   1.000  C
  H173     1.0000 0.70480  0.94120  0.61910  Biso   1.000  H
  C200     1.0000 0.61050  0.97180  0.67640  Biso   1.000  C
  H174     1.0000 0.59760  0.04020  0.66780  Biso   1.000  H
  C201     1.0000 0.58550  0.82840  0.72810  Biso   1.000  C
  H175     1.0000 0.55430  0.79760  0.75530  Biso   1.000  H
  C202     1.0000 0.64960  0.77120  0.69800  Biso   1.000  C
  H176     1.0000 0.66480  0.70320  0.70660  Biso   1.000  H
  C203     1.0000 0.87310  0.26590  0.05840  Biso   1.000  C
  H177     1.0000 0.91570  0.23280  0.03580  Biso   1.000  H
  C204     1.0000 0.82160  0.20710  0.09340  Biso   1.000  C
  H178     1.0000 0.83440  0.13650  0.09580  Biso   1.000  H
  C205     1.0000 0.74520  0.35560  0.12180  Biso   1.000  C
  H179     1.0000 0.69940  0.39030  0.14240  Biso   1.000  H
  C206     1.0000 0.80420  0.40980  0.08950  Biso   1.000  C
  H180     1.0000 0.80260  0.48170  0.09060  Biso   1.000  H
  C207     1.0000 0.58810  0.17350  0.14660  Biso   1.000  C
  H181     1.0000 0.55880  0.20480  0.11910  Biso   1.000  H
  C208     1.0000 0.52820  0.11050  0.17640  Biso   1.000  C
  H182     1.0000 0.45980  0.09760  0.16780  Biso   1.000  H
  C209     1.0000 0.67160  0.08550  0.22810  Biso   1.000  C
  H183     1.0000 0.70240  0.05430  0.25530  Biso   1.000  H
  C210     1.0000 0.72880  0.14960  0.19800  Biso   1.000  C
  H184     1.0000 0.79680  0.16480  0.20660  Biso   1.000  H
  C211     1.0000 0.12690  0.73410  0.05840  Biso   1.000  C
  H185     1.0000 0.08430  0.76720  0.03580  Biso   1.000  H
  C212     1.0000 0.17840  0.79290  0.09340  Biso   1.000  C
  H186     1.0000 0.16560  0.86350  0.09580  Biso   1.000  H
  C213     1.0000 0.25480  0.64440  0.12180  Biso   1.000  C
  H187     1.0000 0.30060  0.60970  0.14240  Biso   1.000  H
  C214     1.0000 0.19580  0.59020  0.08950  Biso   1.000  C
  H188     1.0000 0.19740  0.51830  0.09060  Biso   1.000  H
  C215     1.0000 0.41190  0.82650  0.14660  Biso   1.000  C
  H189     1.0000 0.44120  0.79520  0.11910  Biso   1.000  H
  C216     1.0000 0.47180  0.88950  0.17640  Biso   1.000  C
  H190     1.0000 0.54020  0.90240  0.16780  Biso   1.000  H
  C217     1.0000 0.32840  0.91450  0.22810  Biso   1.000  C
  H191     1.0000 0.29760  0.94570  0.25530  Biso   1.000  H
  C218     1.0000 0.27120  0.85040  0.19800  Biso   1.000  C
  H192     1.0000 0.20320  0.83520  0.20660  Biso   1.000  H
  C219     1.0000 0.23410  0.62690  0.05840  Biso   1.000  C
  H193     1.0000 0.26720  0.58430  0.03580  Biso   1.000  H
  C220     1.0000 0.29290  0.67840  0.09340  Biso   1.000  C
  H194     1.0000 0.36350  0.66560  0.09580  Biso   1.000  H
  C221     1.0000 0.14440  0.75480  0.12180  Biso   1.000  C
  H195     1.0000 0.10970  0.80060  0.14240  Biso   1.000  H
  C222     1.0000 0.09020  0.69580  0.08950  Biso   1.000  C
  H196     1.0000 0.01830  0.69740  0.09060  Biso   1.000  H
  C223     1.0000 0.32650  0.91190  0.14660  Biso   1.000  C
  H197     1.0000 0.29520  0.94120  0.11910  Biso   1.000  H
  C224     1.0000 0.38950  0.97180  0.17640  Biso   1.000  C
  H198     1.0000 0.40240  0.04020  0.16780  Biso   1.000  H
  C225     1.0000 0.41450  0.82840  0.22810  Biso   1.000  C
  H199     1.0000 0.44570  0.79760  0.25530  Biso   1.000  H
  C226     1.0000 0.35040  0.77120  0.19800  Biso   1.000  C
  H200     1.0000 0.33520  0.70320  0.20660  Biso   1.000  H
  C227     1.0000 0.76590  0.37310  0.05840  Biso   1.000  C
  H201     1.0000 0.73280  0.41570  0.03580  Biso   1.000  H
  C228     1.0000 0.70710  0.32160  0.09340  Biso   1.000  C
  H202     1.0000 0.63650  0.33440  0.09580  Biso   1.000  H
  C229     1.0000 0.85560  0.24520  0.12180  Biso   1.000  C
  H203     1.0000 0.89030  0.19940  0.14240  Biso   1.000  H
  C230     1.0000 0.90980  0.30420  0.08950  Biso   1.000  C
  H204     1.0000 0.98170  0.30260  0.09060  Biso   1.000  H
  C231     1.0000 0.67350  0.08810  0.14660  Biso   1.000  C
  H205     1.0000 0.70480  0.05880  0.11910  Biso   1.000  H
  C232     1.0000 0.61050  0.02820  0.17640  Biso   1.000  C
  H206     1.0000 0.59760  0.95980  0.16780  Biso   1.000  H
  C233     1.0000 0.58550  0.17160  0.22810  Biso   1.000  C
  H207     1.0000 0.55430  0.20240  0.25530  Biso   1.000  H
  C234     1.0000 0.64960  0.22880  0.19800  Biso   1.000  C
  H208     1.0000 0.66480  0.29680  0.20660  Biso   1.000  H
  C235     1.0000 0.87310  0.73410  0.55840  Biso   1.000  C
  H209     1.0000 0.91570  0.76720  0.53580  Biso   1.000  H
  C236     1.0000 0.82160  0.79290  0.59340  Biso   1.000  C
  H210     1.0000 0.83440  0.86350  0.59580  Biso   1.000  H
  C237     1.0000 0.74520  0.64440  0.62180  Biso   1.000  C
  H211     1.0000 0.69940  0.60970  0.64240  Biso   1.000  H
  C238     1.0000 0.80420  0.59020  0.58950  Biso   1.000  C
  H212     1.0000 0.80260  0.51830  0.59060  Biso   1.000  H
  C239     1.0000 0.58810  0.82650  0.64660  Biso   1.000  C
  H213     1.0000 0.55880  0.79520  0.61910  Biso   1.000  H
  C240     1.0000 0.52820  0.88950  0.67640  Biso   1.000  C
  H214     1.0000 0.45980  0.90240  0.66780  Biso   1.000  H
  C241     1.0000 0.67160  0.91450  0.72810  Biso   1.000  C
  H215     1.0000 0.70240  0.94570  0.75530  Biso   1.000  H
  C242     1.0000 0.72880  0.85040  0.69800  Biso   1.000  C
  H216     1.0000 0.79680  0.83520  0.70660  Biso   1.000  H
  C243     1.0000 0.12690  0.26590  0.55840  Biso   1.000  C
  H217     1.0000 0.08430  0.23280  0.53580  Biso   1.000  H
  C244     1.0000 0.17840  0.20710  0.59340  Biso   1.000  C
  H218     1.0000 0.16560  0.13650  0.59580  Biso   1.000  H
  C245     1.0000 0.25480  0.35560  0.62180  Biso   1.000  C
  H219     1.0000 0.30060  0.39030  0.64240  Biso   1.000  H
  C246     1.0000 0.19580  0.40980  0.58950  Biso   1.000  C
  H220     1.0000 0.19740  0.48170  0.59060  Biso   1.000  H
  C247     1.0000 0.41190  0.17350  0.64660  Biso   1.000  C
  H221     1.0000 0.44120  0.20480  0.61910  Biso   1.000  H
  C248     1.0000 0.47180  0.11050  0.67640  Biso   1.000  C
  H222     1.0000 0.54020  0.09760  0.66780  Biso   1.000  H
  C249     1.0000 0.32840  0.08550  0.72810  Biso   1.000  C
  H223     1.0000 0.29760  0.05430  0.75530  Biso   1.000  H
  C250     1.0000 0.27120  0.14960  0.69800  Biso   1.000  C
  H224     1.0000 0.20320  0.16480  0.70660  Biso   1.000  H
  C251     1.0000 0.76590  0.62690  0.44160  Biso   1.000  C
  H225     1.0000 0.73280  0.58430  0.46420  Biso   1.000  H
  C252     1.0000 0.70710  0.67840  0.40660  Biso   1.000  C
  H226     1.0000 0.63650  0.66560  0.40420  Biso   1.000  H
  C253     1.0000 0.85560  0.75480  0.37820  Biso   1.000  C
  H227     1.0000 0.89030  0.80060  0.35760  Biso   1.000  H
  C254     1.0000 0.90980  0.69580  0.41050  Biso   1.000  C
  H228     1.0000 0.98170  0.69740  0.40940  Biso   1.000  H
  C255     1.0000 0.67350  0.91190  0.35340  Biso   1.000  C
  H229     1.0000 0.70480  0.94120  0.38090  Biso   1.000  H
  C256     1.0000 0.61050  0.97180  0.32360  Biso   1.000  C
  H230     1.0000 0.59760  0.04020  0.33220  Biso   1.000  H
  C257     1.0000 0.58550  0.82840  0.27190  Biso   1.000  C
  H231     1.0000 0.55430  0.79760  0.24470  Biso   1.000  H
  C258     1.0000 0.64960  0.77120  0.30200  Biso   1.000  C
  H232     1.0000 0.66480  0.70320  0.29340  Biso   1.000  H
  C259     1.0000 0.23410  0.37310  0.44160  Biso   1.000  C
  H233     1.0000 0.26720  0.41570  0.46420  Biso   1.000  H
  C260     1.0000 0.29290  0.32160  0.40660  Biso   1.000  C
  H234     1.0000 0.36350  0.33440  0.40420  Biso   1.000  H
  C261     1.0000 0.14440  0.24520  0.37820  Biso   1.000  C
  H235     1.0000 0.10970  0.19940  0.35760  Biso   1.000  H
  C262     1.0000 0.09020  0.30420  0.41050  Biso   1.000  C
  H236     1.0000 0.01830  0.30260  0.40940  Biso   1.000  H
  C263     1.0000 0.32650  0.08810  0.35340  Biso   1.000  C
  H237     1.0000 0.29520  0.05880  0.38090  Biso   1.000  H
  C264     1.0000 0.38950  0.02820  0.32360  Biso   1.000  C
  H238     1.0000 0.40240  0.95980  0.33220  Biso   1.000  H
  C265     1.0000 0.41450  0.17160  0.27190  Biso   1.000  C
  H239     1.0000 0.44570  0.20240  0.24470  Biso   1.000  H
  C266     1.0000 0.35040  0.22880  0.30200  Biso   1.000  C
  H240     1.0000 0.33520  0.29680  0.29340  Biso   1.000  H
  C267     1.0000 0.12690  0.73410  0.94160  Biso   1.000  C
  H241     1.0000 0.08430  0.76720  0.96420  Biso   1.000  H
  C268     1.0000 0.17840  0.79290  0.90660  Biso   1.000  C
  H242     1.0000 0.16560  0.86350  0.90420  Biso   1.000  H
  C269     1.0000 0.25480  0.64440  0.87820  Biso   1.000  C
  H243     1.0000 0.30060  0.60970  0.85760  Biso   1.000  H
  C270     1.0000 0.19580  0.59020  0.91050  Biso   1.000  C
  H244     1.0000 0.19740  0.51830  0.90940  Biso   1.000  H
  C271     1.0000 0.41190  0.82650  0.85340  Biso   1.000  C
  H245     1.0000 0.44120  0.79520  0.88090  Biso   1.000  H
  C272     1.0000 0.47180  0.88950  0.82360  Biso   1.000  C
  H246     1.0000 0.54020  0.90240  0.83220  Biso   1.000  H
  C273     1.0000 0.32840  0.91450  0.77190  Biso   1.000  C
  H247     1.0000 0.29760  0.94570  0.74470  Biso   1.000  H
  C274     1.0000 0.27120  0.85040  0.80200  Biso   1.000  C
  H248     1.0000 0.20320  0.83520  0.79340  Biso   1.000  H
  C275     1.0000 0.87310  0.26590  0.94160  Biso   1.000  C
  H249     1.0000 0.91570  0.23280  0.96420  Biso   1.000  H
  C276     1.0000 0.82160  0.20710  0.90660  Biso   1.000  C
  H250     1.0000 0.83440  0.13650  0.90420  Biso   1.000  H
  C277     1.0000 0.74520  0.35560  0.87820  Biso   1.000  C
  H251     1.0000 0.69940  0.39030  0.85760  Biso   1.000  H
  C278     1.0000 0.80420  0.40980  0.91050  Biso   1.000  C
  H252     1.0000 0.80260  0.48170  0.90940  Biso   1.000  H
  C279     1.0000 0.58810  0.17350  0.85340  Biso   1.000  C
  H253     1.0000 0.55880  0.20480  0.88090  Biso   1.000  H
  C280     1.0000 0.52820  0.11050  0.82360  Biso   1.000  C
  H254     1.0000 0.45980  0.09760  0.83220  Biso   1.000  H
  C281     1.0000 0.67160  0.08550  0.77190  Biso   1.000  C
  H255     1.0000 0.70240  0.05430  0.74470  Biso   1.000  H
  C282     1.0000 0.72880  0.14960  0.80200  Biso   1.000  C
  H256     1.0000 0.79680  0.16480  0.79340  Biso   1.000  H
  N9       1.0000 0.13610  0.36390  0.44350  Biso   1.000  N
  C283     1.0000 0.24740  0.25260  0.37590  Biso   1.000  C
  C284     1.0000 0.30990  0.19010  0.34250  Biso   1.000  C
  C285     1.0000 0.43260  0.06740  0.28230  Biso   1.000  C
  N10      1.0000 0.86390  0.63610  0.44350  Biso   1.000  N
  C286     1.0000 0.75260  0.74740  0.37590  Biso   1.000  C
  C287     1.0000 0.69010  0.80990  0.34250  Biso   1.000  C
  C288     1.0000 0.56740  0.93260  0.28230  Biso   1.000  C
  N11      1.0000 0.86390  0.36390  0.05650  Biso   1.000  N
  C289     1.0000 0.75260  0.25260  0.12410  Biso   1.000  C
  C290     1.0000 0.69010  0.19010  0.15750  Biso   1.000  C
  C291     1.0000 0.56740  0.06740  0.21770  Biso   1.000  C
  N12      1.0000 0.13610  0.63610  0.05650  Biso   1.000  N
  C292     1.0000 0.24740  0.74740  0.12410  Biso   1.000  C
  C293     1.0000 0.30990  0.80990  0.15750  Biso   1.000  C
  C294     1.0000 0.43260  0.93260  0.21770  Biso   1.000  C
  N13      1.0000 0.86390  0.63610  0.55650  Biso   1.000  N
  C295     1.0000 0.75260  0.74740  0.62410  Biso   1.000  C
  C296     1.0000 0.69010  0.80990  0.65750  Biso   1.000  C
  C297     1.0000 0.56740  0.93260  0.71770  Biso   1.000  C
  N14      1.0000 0.13610  0.36390  0.55650  Biso   1.000  N
  C298     1.0000 0.24740  0.25260  0.62410  Biso   1.000  C
  C299     1.0000 0.30990  0.19010  0.65750  Biso   1.000  C
  C300     1.0000 0.43260  0.06740  0.71770  Biso   1.000  C
  N15      1.0000 0.13610  0.63610  0.94350  Biso   1.000  N
  C301     1.0000 0.24740  0.74740  0.87590  Biso   1.000  C
  C302     1.0000 0.30990  0.80990  0.84250  Biso   1.000  C
  C303     1.0000 0.43260  0.93260  0.78230  Biso   1.000  C
  N16      1.0000 0.86390  0.36390  0.94350  Biso   1.000  N
  C304     1.0000 0.75260  0.25260  0.87590  Biso   1.000  C
  C305     1.0000 0.69010  0.19010  0.84250  Biso   1.000  C
  C306     1.0000 0.56740  0.06740  0.78230  Biso   1.000  C
  C307     1.0000 0.50000  0.00000  0.25000  Biso   1.000  C
  C308     1.0000 0.50000  0.00000  0.75000  Biso   1.000  C
  Cu5      1.0000 0.06612  0.43388  0.50000  Biso   1.000  Cu
  Cu6      1.0000 0.93388  0.56612  0.50000  Biso   1.000  Cu
  Cu7      1.0000 0.93388  0.43388  0.00000  Biso   1.000  Cu
  Cu8      1.0000 0.06612  0.56612  0.00000  Biso   1.000  Cu
  I5       1.0000 0.87945  0.37945  0.50000  Biso   1.000  I
  I6       1.0000 0.12055  0.62055  0.50000  Biso   1.000  I
  I7       1.0000 0.12055  0.37945  0.00000  Biso   1.000  I
  I8       1.0000 0.87945  0.62055  0.00000  Biso   1.000  I
