data_image0
_cell_length_a       6.5228
_cell_length_b       6.5228
_cell_length_c       6.5228
_cell_angle_alpha    90
_cell_angle_beta     90
_cell_angle_gamma    90

_symmetry_space_group_name_H-M    "P 1"
_symmetry_int_tables_number       1

loop_
  _symmetry_equiv_pos_as_xyz
  'x, y, z'

loop_
  _atom_site_label
  _atom_site_occupancy
  _atom_site_fract_x
  _atom_site_fract_y
  _atom_site_fract_z
  _atom_site_thermal_displace_type
  _atom_site_B_iso_or_equiv
  _atom_site_type_symbol
  Cd1      1.0000 0.00000  0.00000  0.00000  Biso   1.000  Cd
  N1       1.0000 0.00000  0.34530  0.08500  Biso   1.000  N
  N2       1.0000 0.00000  0.65470  0.08500  Biso   1.000  N
  N3       1.0000 0.00000  0.34530  0.91500  Biso   1.000  N
  N4       1.0000 0.00000  0.65470  0.91500  Biso   1.000  N
  N5       1.0000 0.08500  0.00000  0.34530  Biso   1.000  N
  N6       1.0000 0.08500  0.00000  0.65470  Biso   1.000  N
  N7       1.0000 0.91500  0.00000  0.34530  Biso   1.000  N
  N8       1.0000 0.91500  0.00000  0.65470  Biso   1.000  N
  N9       1.0000 0.34530  0.08500  0.00000  Biso   1.000  N
  N10      1.0000 0.65470  0.08500  0.00000  Biso   1.000  N
  N11      1.0000 0.34530  0.91500  0.00000  Biso   1.000  N
  N12      1.0000 0.65470  0.91500  0.00000  Biso   1.000  N
  N13      1.0000 0.34530  0.00000  0.91500  Biso   1.000  N
  N14      1.0000 0.65470  0.00000  0.91500  Biso   1.000  N
  N15      1.0000 0.34530  0.00000  0.08500  Biso   1.000  N
  N16      1.0000 0.65470  0.00000  0.08500  Biso   1.000  N
  N17      1.0000 0.00000  0.08500  0.65470  Biso   1.000  N
  N18      1.0000 0.00000  0.08500  0.34530  Biso   1.000  N
  N19      1.0000 0.00000  0.91500  0.65470  Biso   1.000  N
  N20      1.0000 0.00000  0.91500  0.34530  Biso   1.000  N
  N21      1.0000 0.08500  0.34530  0.00000  Biso   1.000  N
  N22      1.0000 0.08500  0.65470  0.00000  Biso   1.000  N
  N23      1.0000 0.91500  0.34530  0.00000  Biso   1.000  N
  N24      1.0000 0.91500  0.65470  0.00000  Biso   1.000  N
  N25      1.0000 0.00000  0.50000  0.00000  Biso   1.000  N
  N26      1.0000 0.00000  0.00000  0.50000  Biso   1.000  N
  N27      1.0000 0.50000  0.00000  0.00000  Biso   1.000  N
