data_image0
_cell_length_a       30.2922
_cell_length_b       30.2922
_cell_length_c       29.597
_cell_angle_alpha    90
_cell_angle_beta     90
_cell_angle_gamma    90

_symmetry_space_group_name_H-M    "P 1"
_symmetry_int_tables_number       1

loop_
  _symmetry_equiv_pos_as_xyz
  'x, y, z'

loop_
  _atom_site_label
  _atom_site_occupancy
  _atom_site_fract_x
  _atom_site_fract_y
  _atom_site_fract_z
  _atom_site_thermal_displace_type
  _atom_site_B_iso_or_equiv
  _atom_site_type_symbol
  O1       1.0000 0.18760  0.12410  0.16540  Biso   1.000  O
  O2       1.0000 0.22590  0.16380  0.21930  Biso   1.000  O
  O3       1.0000 0.26617  0.04480  0.04503  Biso   1.000  O
  O4       1.0000 0.34249  0.04640  0.04678  Biso   1.000  O
  O5       1.0000 0.14330  0.07966  0.23420  Biso   1.000  O
  O6       1.0000 0.18310  0.11880  0.28510  Biso   1.000  O
  C1       1.0000 0.22050  0.13930  0.18740  Biso   1.000  C
  C2       1.0000 0.30260  0.05310  0.05730  Biso   1.000  C
  C3       1.0000 0.26310  0.12900  0.15920  Biso   1.000  C
  C4       1.0000 0.26450  0.10050  0.11820  Biso   1.000  C
  C5       1.0000 0.30360  0.09020  0.09620  Biso   1.000  C
  C6       1.0000 0.34270  0.10880  0.11320  Biso   1.000  C
  C7       1.0000 0.34240  0.14190  0.14990  Biso   1.000  C
  C8       1.0000 0.30240  0.14820  0.17050  Biso   1.000  C
  C9       1.0000 0.38540  0.16040  0.16520  Biso   1.000  C
  C10      1.0000 0.46030  0.20960  0.18390  Biso   1.000  C
  C11      1.0000 0.16980  0.08320  0.26600  Biso   1.000  C
  C12      1.0000 0.18220  0.03790  0.28900  Biso   1.000  C
  C13      1.0000 0.21240  0.04280  0.32650  Biso   1.000  C
  C14      1.0000 0.25100  0.96840  0.41880  Biso   1.000  C
  C15      1.0000 0.27840  0.96890  0.45680  Biso   1.000  C
  C16      1.0000 0.31960  0.02960  0.42550  Biso   1.000  C
  C17      1.0000 0.29300  0.02970  0.38800  Biso   1.000  C
  C18      1.0000 0.42680  0.13990  0.16680  Biso   1.000  C
  C19      1.0000 0.46460  0.16530  0.17640  Biso   1.000  C
  C20      1.0000 0.42050  0.23090  0.18280  Biso   1.000  C
  C21      1.0000 0.38140  0.20530  0.17300  Biso   1.000  C
  C22      1.0000 0.41000  0.17720  0.12980  Biso   1.000  C
  C23      1.0000 0.43540  0.19250  0.21910  Biso   1.000  C
  C24      1.0000 0.39740  0.16780  0.20950  Biso   1.000  C
  C25      1.0000 0.44870  0.20260  0.13870  Biso   1.000  C
  O7       1.0000 0.81240  0.87590  0.16540  Biso   1.000  O
  O8       1.0000 0.77410  0.83620  0.21930  Biso   1.000  O
  O9       1.0000 0.73383  0.95520  0.04503  Biso   1.000  O
  O10      1.0000 0.65751  0.95360  0.04678  Biso   1.000  O
  O11      1.0000 0.85670  0.92034  0.23420  Biso   1.000  O
  O12      1.0000 0.81690  0.88120  0.28510  Biso   1.000  O
  C26      1.0000 0.77950  0.86070  0.18740  Biso   1.000  C
  C27      1.0000 0.69740  0.94690  0.05730  Biso   1.000  C
  C28      1.0000 0.73690  0.87100  0.15920  Biso   1.000  C
  C29      1.0000 0.73550  0.89950  0.11820  Biso   1.000  C
  C30      1.0000 0.69640  0.90980  0.09620  Biso   1.000  C
  C31      1.0000 0.65730  0.89120  0.11320  Biso   1.000  C
  C32      1.0000 0.65760  0.85810  0.14990  Biso   1.000  C
  C33      1.0000 0.69760  0.85180  0.17050  Biso   1.000  C
  C34      1.0000 0.61460  0.83960  0.16520  Biso   1.000  C
  C35      1.0000 0.53970  0.79040  0.18390  Biso   1.000  C
  C36      1.0000 0.83020  0.91680  0.26600  Biso   1.000  C
  C37      1.0000 0.81780  0.96210  0.28900  Biso   1.000  C
  C38      1.0000 0.78760  0.95720  0.32650  Biso   1.000  C
  C39      1.0000 0.74900  0.03160  0.41880  Biso   1.000  C
  C40      1.0000 0.72160  0.03110  0.45680  Biso   1.000  C
  C41      1.0000 0.68040  0.97040  0.42550  Biso   1.000  C
  C42      1.0000 0.70700  0.97030  0.38800  Biso   1.000  C
  C43      1.0000 0.57320  0.86010  0.16680  Biso   1.000  C
  C44      1.0000 0.53540  0.83470  0.17640  Biso   1.000  C
  C45      1.0000 0.57950  0.76910  0.18280  Biso   1.000  C
  C46      1.0000 0.61860  0.79470  0.17300  Biso   1.000  C
  C47      1.0000 0.59000  0.82280  0.12980  Biso   1.000  C
  C48      1.0000 0.56460  0.80750  0.21910  Biso   1.000  C
  C49      1.0000 0.60260  0.83220  0.20950  Biso   1.000  C
  C50      1.0000 0.55130  0.79740  0.13870  Biso   1.000  C
  O13      1.0000 0.87590  0.18760  0.16540  Biso   1.000  O
  O14      1.0000 0.83620  0.22590  0.21930  Biso   1.000  O
  O15      1.0000 0.95520  0.26617  0.04503  Biso   1.000  O
  O16      1.0000 0.95360  0.34249  0.04678  Biso   1.000  O
  O17      1.0000 0.92034  0.14330  0.23420  Biso   1.000  O
  O18      1.0000 0.88120  0.18310  0.28510  Biso   1.000  O
  C51      1.0000 0.86070  0.22050  0.18740  Biso   1.000  C
  C52      1.0000 0.94690  0.30260  0.05730  Biso   1.000  C
  C53      1.0000 0.87100  0.26310  0.15920  Biso   1.000  C
  C54      1.0000 0.89950  0.26450  0.11820  Biso   1.000  C
  C55      1.0000 0.90980  0.30360  0.09620  Biso   1.000  C
  C56      1.0000 0.89120  0.34270  0.11320  Biso   1.000  C
  C57      1.0000 0.85810  0.34240  0.14990  Biso   1.000  C
  C58      1.0000 0.85180  0.30240  0.17050  Biso   1.000  C
  C59      1.0000 0.83960  0.38540  0.16520  Biso   1.000  C
  C60      1.0000 0.79040  0.46030  0.18390  Biso   1.000  C
  C61      1.0000 0.91680  0.16980  0.26600  Biso   1.000  C
  C62      1.0000 0.96210  0.18220  0.28900  Biso   1.000  C
  C63      1.0000 0.95720  0.21240  0.32650  Biso   1.000  C
  C64      1.0000 0.03160  0.25100  0.41880  Biso   1.000  C
  C65      1.0000 0.03110  0.27840  0.45680  Biso   1.000  C
  C66      1.0000 0.97040  0.31960  0.42550  Biso   1.000  C
  C67      1.0000 0.97030  0.29300  0.38800  Biso   1.000  C
  C68      1.0000 0.86010  0.42680  0.16680  Biso   1.000  C
  C69      1.0000 0.83470  0.46460  0.17640  Biso   1.000  C
  C70      1.0000 0.76910  0.42050  0.18280  Biso   1.000  C
  C71      1.0000 0.79470  0.38140  0.17300  Biso   1.000  C
  C72      1.0000 0.82280  0.41000  0.12980  Biso   1.000  C
  C73      1.0000 0.80750  0.43540  0.21910  Biso   1.000  C
  C74      1.0000 0.83220  0.39740  0.20950  Biso   1.000  C
  C75      1.0000 0.79740  0.44870  0.13870  Biso   1.000  C
  O19      1.0000 0.12410  0.81240  0.16540  Biso   1.000  O
  O20      1.0000 0.16380  0.77410  0.21930  Biso   1.000  O
  O21      1.0000 0.04480  0.73383  0.04503  Biso   1.000  O
  O22      1.0000 0.04640  0.65751  0.04678  Biso   1.000  O
  O23      1.0000 0.07966  0.85670  0.23420  Biso   1.000  O
  O24      1.0000 0.11880  0.81690  0.28510  Biso   1.000  O
  C76      1.0000 0.13930  0.77950  0.18740  Biso   1.000  C
  C77      1.0000 0.05310  0.69740  0.05730  Biso   1.000  C
  C78      1.0000 0.12900  0.73690  0.15920  Biso   1.000  C
  C79      1.0000 0.10050  0.73550  0.11820  Biso   1.000  C
  C80      1.0000 0.09020  0.69640  0.09620  Biso   1.000  C
  C81      1.0000 0.10880  0.65730  0.11320  Biso   1.000  C
  C82      1.0000 0.14190  0.65760  0.14990  Biso   1.000  C
  C83      1.0000 0.14820  0.69760  0.17050  Biso   1.000  C
  C84      1.0000 0.16040  0.61460  0.16520  Biso   1.000  C
  C85      1.0000 0.20960  0.53970  0.18390  Biso   1.000  C
  C86      1.0000 0.08320  0.83020  0.26600  Biso   1.000  C
  C87      1.0000 0.03790  0.81780  0.28900  Biso   1.000  C
  C88      1.0000 0.04280  0.78760  0.32650  Biso   1.000  C
  C89      1.0000 0.96840  0.74900  0.41880  Biso   1.000  C
  C90      1.0000 0.96890  0.72160  0.45680  Biso   1.000  C
  C91      1.0000 0.02960  0.68040  0.42550  Biso   1.000  C
  C92      1.0000 0.02970  0.70700  0.38800  Biso   1.000  C
  C93      1.0000 0.13990  0.57320  0.16680  Biso   1.000  C
  C94      1.0000 0.16530  0.53540  0.17640  Biso   1.000  C
  C95      1.0000 0.23090  0.57950  0.18280  Biso   1.000  C
  C96      1.0000 0.20530  0.61860  0.17300  Biso   1.000  C
  C97      1.0000 0.17720  0.59000  0.12980  Biso   1.000  C
  C98      1.0000 0.19250  0.56460  0.21910  Biso   1.000  C
  C99      1.0000 0.16780  0.60260  0.20950  Biso   1.000  C
  C100     1.0000 0.20260  0.55130  0.13870  Biso   1.000  C
  O25      1.0000 0.81240  0.12410  0.83460  Biso   1.000  O
  O26      1.0000 0.77410  0.16380  0.78070  Biso   1.000  O
  O27      1.0000 0.73383  0.04480  0.95497  Biso   1.000  O
  O28      1.0000 0.65751  0.04640  0.95322  Biso   1.000  O
  O29      1.0000 0.85670  0.07966  0.76580  Biso   1.000  O
  O30      1.0000 0.81690  0.11880  0.71490  Biso   1.000  O
  C101     1.0000 0.77950  0.13930  0.81260  Biso   1.000  C
  C102     1.0000 0.69740  0.05310  0.94270  Biso   1.000  C
  C103     1.0000 0.73690  0.12900  0.84080  Biso   1.000  C
  C104     1.0000 0.73550  0.10050  0.88180  Biso   1.000  C
  C105     1.0000 0.69640  0.09020  0.90380  Biso   1.000  C
  C106     1.0000 0.65730  0.10880  0.88680  Biso   1.000  C
  C107     1.0000 0.65760  0.14190  0.85010  Biso   1.000  C
  C108     1.0000 0.69760  0.14820  0.82950  Biso   1.000  C
  C109     1.0000 0.61460  0.16040  0.83480  Biso   1.000  C
  C110     1.0000 0.53970  0.20960  0.81610  Biso   1.000  C
  C111     1.0000 0.83020  0.08320  0.73400  Biso   1.000  C
  C112     1.0000 0.81780  0.03790  0.71100  Biso   1.000  C
  C113     1.0000 0.78760  0.04280  0.67350  Biso   1.000  C
  C114     1.0000 0.74900  0.96840  0.58120  Biso   1.000  C
  C115     1.0000 0.72160  0.96890  0.54320  Biso   1.000  C
  C116     1.0000 0.68040  0.02960  0.57450  Biso   1.000  C
  C117     1.0000 0.70700  0.02970  0.61200  Biso   1.000  C
  C118     1.0000 0.57320  0.13990  0.83320  Biso   1.000  C
  C119     1.0000 0.53540  0.16530  0.82360  Biso   1.000  C
  C120     1.0000 0.57950  0.23090  0.81720  Biso   1.000  C
  C121     1.0000 0.61860  0.20530  0.82700  Biso   1.000  C
  C122     1.0000 0.59000  0.17720  0.87020  Biso   1.000  C
  C123     1.0000 0.56460  0.19250  0.78090  Biso   1.000  C
  C124     1.0000 0.60260  0.16780  0.79050  Biso   1.000  C
  C125     1.0000 0.55130  0.20260  0.86130  Biso   1.000  C
  O31      1.0000 0.18760  0.87590  0.83460  Biso   1.000  O
  O32      1.0000 0.22590  0.83620  0.78070  Biso   1.000  O
  O33      1.0000 0.26617  0.95520  0.95497  Biso   1.000  O
  O34      1.0000 0.34249  0.95360  0.95322  Biso   1.000  O
  O35      1.0000 0.14330  0.92034  0.76580  Biso   1.000  O
  O36      1.0000 0.18310  0.88120  0.71490  Biso   1.000  O
  C126     1.0000 0.22050  0.86070  0.81260  Biso   1.000  C
  C127     1.0000 0.30260  0.94690  0.94270  Biso   1.000  C
  C128     1.0000 0.26310  0.87100  0.84080  Biso   1.000  C
  C129     1.0000 0.26450  0.89950  0.88180  Biso   1.000  C
  C130     1.0000 0.30360  0.90980  0.90380  Biso   1.000  C
  C131     1.0000 0.34270  0.89120  0.88680  Biso   1.000  C
  C132     1.0000 0.34240  0.85810  0.85010  Biso   1.000  C
  C133     1.0000 0.30240  0.85180  0.82950  Biso   1.000  C
  C134     1.0000 0.38540  0.83960  0.83480  Biso   1.000  C
  C135     1.0000 0.46030  0.79040  0.81610  Biso   1.000  C
  C136     1.0000 0.16980  0.91680  0.73400  Biso   1.000  C
  C137     1.0000 0.18220  0.96210  0.71100  Biso   1.000  C
  C138     1.0000 0.21240  0.95720  0.67350  Biso   1.000  C
  C139     1.0000 0.25100  0.03160  0.58120  Biso   1.000  C
  C140     1.0000 0.27840  0.03110  0.54320  Biso   1.000  C
  C141     1.0000 0.31960  0.97040  0.57450  Biso   1.000  C
  C142     1.0000 0.29300  0.97030  0.61200  Biso   1.000  C
  C143     1.0000 0.42680  0.86010  0.83320  Biso   1.000  C
  C144     1.0000 0.46460  0.83470  0.82360  Biso   1.000  C
  C145     1.0000 0.42050  0.76910  0.81720  Biso   1.000  C
  C146     1.0000 0.38140  0.79470  0.82700  Biso   1.000  C
  C147     1.0000 0.41000  0.82280  0.87020  Biso   1.000  C
  C148     1.0000 0.43540  0.80750  0.78090  Biso   1.000  C
  C149     1.0000 0.39740  0.83220  0.79050  Biso   1.000  C
  C150     1.0000 0.44870  0.79740  0.86130  Biso   1.000  C
  O37      1.0000 0.12410  0.18760  0.83460  Biso   1.000  O
  O38      1.0000 0.16380  0.22590  0.78070  Biso   1.000  O
  O39      1.0000 0.04480  0.26617  0.95497  Biso   1.000  O
  O40      1.0000 0.04640  0.34249  0.95322  Biso   1.000  O
  O41      1.0000 0.07966  0.14330  0.76580  Biso   1.000  O
  O42      1.0000 0.11880  0.18310  0.71490  Biso   1.000  O
  C151     1.0000 0.13930  0.22050  0.81260  Biso   1.000  C
  C152     1.0000 0.05310  0.30260  0.94270  Biso   1.000  C
  C153     1.0000 0.12900  0.26310  0.84080  Biso   1.000  C
  C154     1.0000 0.10050  0.26450  0.88180  Biso   1.000  C
  C155     1.0000 0.09020  0.30360  0.90380  Biso   1.000  C
  C156     1.0000 0.10880  0.34270  0.88680  Biso   1.000  C
  C157     1.0000 0.14190  0.34240  0.85010  Biso   1.000  C
  C158     1.0000 0.14820  0.30240  0.82950  Biso   1.000  C
  C159     1.0000 0.16040  0.38540  0.83480  Biso   1.000  C
  C160     1.0000 0.20960  0.46030  0.81610  Biso   1.000  C
  C161     1.0000 0.08320  0.16980  0.73400  Biso   1.000  C
  C162     1.0000 0.03790  0.18220  0.71100  Biso   1.000  C
  C163     1.0000 0.04280  0.21240  0.67350  Biso   1.000  C
  C164     1.0000 0.96840  0.25100  0.58120  Biso   1.000  C
  C165     1.0000 0.96890  0.27840  0.54320  Biso   1.000  C
  C166     1.0000 0.02960  0.31960  0.57450  Biso   1.000  C
  C167     1.0000 0.02970  0.29300  0.61200  Biso   1.000  C
  C168     1.0000 0.13990  0.42680  0.83320  Biso   1.000  C
  C169     1.0000 0.16530  0.46460  0.82360  Biso   1.000  C
  C170     1.0000 0.23090  0.42050  0.81720  Biso   1.000  C
  C171     1.0000 0.20530  0.38140  0.82700  Biso   1.000  C
  C172     1.0000 0.17720  0.41000  0.87020  Biso   1.000  C
  C173     1.0000 0.19250  0.43540  0.78090  Biso   1.000  C
  C174     1.0000 0.16780  0.39740  0.79050  Biso   1.000  C
  C175     1.0000 0.20260  0.44870  0.86130  Biso   1.000  C
  O43      1.0000 0.87590  0.81240  0.83460  Biso   1.000  O
  O44      1.0000 0.83620  0.77410  0.78070  Biso   1.000  O
  O45      1.0000 0.95520  0.73383  0.95497  Biso   1.000  O
  O46      1.0000 0.95360  0.65751  0.95322  Biso   1.000  O
  O47      1.0000 0.92034  0.85670  0.76580  Biso   1.000  O
  O48      1.0000 0.88120  0.81690  0.71490  Biso   1.000  O
  C176     1.0000 0.86070  0.77950  0.81260  Biso   1.000  C
  C177     1.0000 0.94690  0.69740  0.94270  Biso   1.000  C
  C178     1.0000 0.87100  0.73690  0.84080  Biso   1.000  C
  C179     1.0000 0.89950  0.73550  0.88180  Biso   1.000  C
  C180     1.0000 0.90980  0.69640  0.90380  Biso   1.000  C
  C181     1.0000 0.89120  0.65730  0.88680  Biso   1.000  C
  C182     1.0000 0.85810  0.65760  0.85010  Biso   1.000  C
  C183     1.0000 0.85180  0.69760  0.82950  Biso   1.000  C
  C184     1.0000 0.83960  0.61460  0.83480  Biso   1.000  C
  C185     1.0000 0.79040  0.53970  0.81610  Biso   1.000  C
  C186     1.0000 0.91680  0.83020  0.73400  Biso   1.000  C
  C187     1.0000 0.96210  0.81780  0.71100  Biso   1.000  C
  C188     1.0000 0.95720  0.78760  0.67350  Biso   1.000  C
  C189     1.0000 0.03160  0.74900  0.58120  Biso   1.000  C
  C190     1.0000 0.03110  0.72160  0.54320  Biso   1.000  C
  C191     1.0000 0.97040  0.68040  0.57450  Biso   1.000  C
  C192     1.0000 0.97030  0.70700  0.61200  Biso   1.000  C
  C193     1.0000 0.86010  0.57320  0.83320  Biso   1.000  C
  C194     1.0000 0.83470  0.53540  0.82360  Biso   1.000  C
  C195     1.0000 0.76910  0.57950  0.81720  Biso   1.000  C
  C196     1.0000 0.79470  0.61860  0.82700  Biso   1.000  C
  C197     1.0000 0.82280  0.59000  0.87020  Biso   1.000  C
  C198     1.0000 0.80750  0.56460  0.78090  Biso   1.000  C
  C199     1.0000 0.83220  0.60260  0.79050  Biso   1.000  C
  C200     1.0000 0.79740  0.55130  0.86130  Biso   1.000  C
  O49      1.0000 0.81240  0.87590  0.83460  Biso   1.000  O
  O50      1.0000 0.77410  0.83620  0.78070  Biso   1.000  O
  O51      1.0000 0.73383  0.95520  0.95497  Biso   1.000  O
  O52      1.0000 0.65751  0.95360  0.95322  Biso   1.000  O
  O53      1.0000 0.85670  0.92034  0.76580  Biso   1.000  O
  O54      1.0000 0.81690  0.88120  0.71490  Biso   1.000  O
  C201     1.0000 0.77950  0.86070  0.81260  Biso   1.000  C
  C202     1.0000 0.69740  0.94690  0.94270  Biso   1.000  C
  C203     1.0000 0.73690  0.87100  0.84080  Biso   1.000  C
  C204     1.0000 0.73550  0.89950  0.88180  Biso   1.000  C
  C205     1.0000 0.69640  0.90980  0.90380  Biso   1.000  C
  C206     1.0000 0.65730  0.89120  0.88680  Biso   1.000  C
  C207     1.0000 0.65760  0.85810  0.85010  Biso   1.000  C
  C208     1.0000 0.69760  0.85180  0.82950  Biso   1.000  C
  C209     1.0000 0.61460  0.83960  0.83480  Biso   1.000  C
  C210     1.0000 0.53970  0.79040  0.81610  Biso   1.000  C
  C211     1.0000 0.83020  0.91680  0.73400  Biso   1.000  C
  C212     1.0000 0.81780  0.96210  0.71100  Biso   1.000  C
  C213     1.0000 0.78760  0.95720  0.67350  Biso   1.000  C
  C214     1.0000 0.74900  0.03160  0.58120  Biso   1.000  C
  C215     1.0000 0.72160  0.03110  0.54320  Biso   1.000  C
  C216     1.0000 0.68040  0.97040  0.57450  Biso   1.000  C
  C217     1.0000 0.70700  0.97030  0.61200  Biso   1.000  C
  C218     1.0000 0.57320  0.86010  0.83320  Biso   1.000  C
  C219     1.0000 0.53540  0.83470  0.82360  Biso   1.000  C
  C220     1.0000 0.57950  0.76910  0.81720  Biso   1.000  C
  C221     1.0000 0.61860  0.79470  0.82700  Biso   1.000  C
  C222     1.0000 0.59000  0.82280  0.87020  Biso   1.000  C
  C223     1.0000 0.56460  0.80750  0.78090  Biso   1.000  C
  C224     1.0000 0.60260  0.83220  0.79050  Biso   1.000  C
  C225     1.0000 0.55130  0.79740  0.86130  Biso   1.000  C
  O55      1.0000 0.18760  0.12410  0.83460  Biso   1.000  O
  O56      1.0000 0.22590  0.16380  0.78070  Biso   1.000  O
  O57      1.0000 0.26617  0.04480  0.95497  Biso   1.000  O
  O58      1.0000 0.34249  0.04640  0.95322  Biso   1.000  O
  O59      1.0000 0.14330  0.07966  0.76580  Biso   1.000  O
  O60      1.0000 0.18310  0.11880  0.71490  Biso   1.000  O
  C226     1.0000 0.22050  0.13930  0.81260  Biso   1.000  C
  C227     1.0000 0.30260  0.05310  0.94270  Biso   1.000  C
  C228     1.0000 0.26310  0.12900  0.84080  Biso   1.000  C
  C229     1.0000 0.26450  0.10050  0.88180  Biso   1.000  C
  C230     1.0000 0.30360  0.09020  0.90380  Biso   1.000  C
  C231     1.0000 0.34270  0.10880  0.88680  Biso   1.000  C
  C232     1.0000 0.34240  0.14190  0.85010  Biso   1.000  C
  C233     1.0000 0.30240  0.14820  0.82950  Biso   1.000  C
  C234     1.0000 0.38540  0.16040  0.83480  Biso   1.000  C
  C235     1.0000 0.46030  0.20960  0.81610  Biso   1.000  C
  C236     1.0000 0.16980  0.08320  0.73400  Biso   1.000  C
  C237     1.0000 0.18220  0.03790  0.71100  Biso   1.000  C
  C238     1.0000 0.21240  0.04280  0.67350  Biso   1.000  C
  C239     1.0000 0.25100  0.96840  0.58120  Biso   1.000  C
  C240     1.0000 0.27840  0.96890  0.54320  Biso   1.000  C
  C241     1.0000 0.31960  0.02960  0.57450  Biso   1.000  C
  C242     1.0000 0.29300  0.02970  0.61200  Biso   1.000  C
  C243     1.0000 0.42680  0.13990  0.83320  Biso   1.000  C
  C244     1.0000 0.46460  0.16530  0.82360  Biso   1.000  C
  C245     1.0000 0.42050  0.23090  0.81720  Biso   1.000  C
  C246     1.0000 0.38140  0.20530  0.82700  Biso   1.000  C
  C247     1.0000 0.41000  0.17720  0.87020  Biso   1.000  C
  C248     1.0000 0.43540  0.19250  0.78090  Biso   1.000  C
  C249     1.0000 0.39740  0.16780  0.79050  Biso   1.000  C
  C250     1.0000 0.44870  0.20260  0.86130  Biso   1.000  C
  O61      1.0000 0.12410  0.81240  0.83460  Biso   1.000  O
  O62      1.0000 0.16380  0.77410  0.78070  Biso   1.000  O
  O63      1.0000 0.04480  0.73383  0.95497  Biso   1.000  O
  O64      1.0000 0.04640  0.65751  0.95322  Biso   1.000  O
  O65      1.0000 0.07966  0.85670  0.76580  Biso   1.000  O
  O66      1.0000 0.11880  0.81690  0.71490  Biso   1.000  O
  C251     1.0000 0.13930  0.77950  0.81260  Biso   1.000  C
  C252     1.0000 0.05310  0.69740  0.94270  Biso   1.000  C
  C253     1.0000 0.12900  0.73690  0.84080  Biso   1.000  C
  C254     1.0000 0.10050  0.73550  0.88180  Biso   1.000  C
  C255     1.0000 0.09020  0.69640  0.90380  Biso   1.000  C
  C256     1.0000 0.10880  0.65730  0.88680  Biso   1.000  C
  C257     1.0000 0.14190  0.65760  0.85010  Biso   1.000  C
  C258     1.0000 0.14820  0.69760  0.82950  Biso   1.000  C
  C259     1.0000 0.16040  0.61460  0.83480  Biso   1.000  C
  C260     1.0000 0.20960  0.53970  0.81610  Biso   1.000  C
  C261     1.0000 0.08320  0.83020  0.73400  Biso   1.000  C
  C262     1.0000 0.03790  0.81780  0.71100  Biso   1.000  C
  C263     1.0000 0.04280  0.78760  0.67350  Biso   1.000  C
  C264     1.0000 0.96840  0.74900  0.58120  Biso   1.000  C
  C265     1.0000 0.96890  0.72160  0.54320  Biso   1.000  C
  C266     1.0000 0.02960  0.68040  0.57450  Biso   1.000  C
  C267     1.0000 0.02970  0.70700  0.61200  Biso   1.000  C
  C268     1.0000 0.13990  0.57320  0.83320  Biso   1.000  C
  C269     1.0000 0.16530  0.53540  0.82360  Biso   1.000  C
  C270     1.0000 0.23090  0.57950  0.81720  Biso   1.000  C
  C271     1.0000 0.20530  0.61860  0.82700  Biso   1.000  C
  C272     1.0000 0.17720  0.59000  0.87020  Biso   1.000  C
  C273     1.0000 0.19250  0.56460  0.78090  Biso   1.000  C
  C274     1.0000 0.16780  0.60260  0.79050  Biso   1.000  C
  C275     1.0000 0.20260  0.55130  0.86130  Biso   1.000  C
  O67      1.0000 0.87590  0.18760  0.83460  Biso   1.000  O
  O68      1.0000 0.83620  0.22590  0.78070  Biso   1.000  O
  O69      1.0000 0.95520  0.26617  0.95497  Biso   1.000  O
  O70      1.0000 0.95360  0.34249  0.95322  Biso   1.000  O
  O71      1.0000 0.92034  0.14330  0.76580  Biso   1.000  O
  O72      1.0000 0.88120  0.18310  0.71490  Biso   1.000  O
  C276     1.0000 0.86070  0.22050  0.81260  Biso   1.000  C
  C277     1.0000 0.94690  0.30260  0.94270  Biso   1.000  C
  C278     1.0000 0.87100  0.26310  0.84080  Biso   1.000  C
  C279     1.0000 0.89950  0.26450  0.88180  Biso   1.000  C
  C280     1.0000 0.90980  0.30360  0.90380  Biso   1.000  C
  C281     1.0000 0.89120  0.34270  0.88680  Biso   1.000  C
  C282     1.0000 0.85810  0.34240  0.85010  Biso   1.000  C
  C283     1.0000 0.85180  0.30240  0.82950  Biso   1.000  C
  C284     1.0000 0.83960  0.38540  0.83480  Biso   1.000  C
  C285     1.0000 0.79040  0.46030  0.81610  Biso   1.000  C
  C286     1.0000 0.91680  0.16980  0.73400  Biso   1.000  C
  C287     1.0000 0.96210  0.18220  0.71100  Biso   1.000  C
  C288     1.0000 0.95720  0.21240  0.67350  Biso   1.000  C
  C289     1.0000 0.03160  0.25100  0.58120  Biso   1.000  C
  C290     1.0000 0.03110  0.27840  0.54320  Biso   1.000  C
  C291     1.0000 0.97040  0.31960  0.57450  Biso   1.000  C
  C292     1.0000 0.97030  0.29300  0.61200  Biso   1.000  C
  C293     1.0000 0.86010  0.42680  0.83320  Biso   1.000  C
  C294     1.0000 0.83470  0.46460  0.82360  Biso   1.000  C
  C295     1.0000 0.76910  0.42050  0.81720  Biso   1.000  C
  C296     1.0000 0.79470  0.38140  0.82700  Biso   1.000  C
  C297     1.0000 0.82280  0.41000  0.87020  Biso   1.000  C
  C298     1.0000 0.80750  0.43540  0.78090  Biso   1.000  C
  C299     1.0000 0.83220  0.39740  0.79050  Biso   1.000  C
  C300     1.0000 0.79740  0.44870  0.86130  Biso   1.000  C
  O73      1.0000 0.18760  0.87590  0.16540  Biso   1.000  O
  O74      1.0000 0.22590  0.83620  0.21930  Biso   1.000  O
  O75      1.0000 0.26617  0.95520  0.04503  Biso   1.000  O
  O76      1.0000 0.34249  0.95360  0.04678  Biso   1.000  O
  O77      1.0000 0.14330  0.92034  0.23420  Biso   1.000  O
  O78      1.0000 0.18310  0.88120  0.28510  Biso   1.000  O
  C301     1.0000 0.22050  0.86070  0.18740  Biso   1.000  C
  C302     1.0000 0.30260  0.94690  0.05730  Biso   1.000  C
  C303     1.0000 0.26310  0.87100  0.15920  Biso   1.000  C
  C304     1.0000 0.26450  0.89950  0.11820  Biso   1.000  C
  C305     1.0000 0.30360  0.90980  0.09620  Biso   1.000  C
  C306     1.0000 0.34270  0.89120  0.11320  Biso   1.000  C
  C307     1.0000 0.34240  0.85810  0.14990  Biso   1.000  C
  C308     1.0000 0.30240  0.85180  0.17050  Biso   1.000  C
  C309     1.0000 0.38540  0.83960  0.16520  Biso   1.000  C
  C310     1.0000 0.46030  0.79040  0.18390  Biso   1.000  C
  C311     1.0000 0.16980  0.91680  0.26600  Biso   1.000  C
  C312     1.0000 0.18220  0.96210  0.28900  Biso   1.000  C
  C313     1.0000 0.21240  0.95720  0.32650  Biso   1.000  C
  C314     1.0000 0.25100  0.03160  0.41880  Biso   1.000  C
  C315     1.0000 0.27840  0.03110  0.45680  Biso   1.000  C
  C316     1.0000 0.31960  0.97040  0.42550  Biso   1.000  C
  C317     1.0000 0.29300  0.97030  0.38800  Biso   1.000  C
  C318     1.0000 0.42680  0.86010  0.16680  Biso   1.000  C
  C319     1.0000 0.46460  0.83470  0.17640  Biso   1.000  C
  C320     1.0000 0.42050  0.76910  0.18280  Biso   1.000  C
  C321     1.0000 0.38140  0.79470  0.17300  Biso   1.000  C
  C322     1.0000 0.41000  0.82280  0.12980  Biso   1.000  C
  C323     1.0000 0.43540  0.80750  0.21910  Biso   1.000  C
  C324     1.0000 0.39740  0.83220  0.20950  Biso   1.000  C
  C325     1.0000 0.44870  0.79740  0.13870  Biso   1.000  C
  O79      1.0000 0.81240  0.12410  0.16540  Biso   1.000  O
  O80      1.0000 0.77410  0.16380  0.21930  Biso   1.000  O
  O81      1.0000 0.73383  0.04480  0.04503  Biso   1.000  O
  O82      1.0000 0.65751  0.04640  0.04678  Biso   1.000  O
  O83      1.0000 0.85670  0.07966  0.23420  Biso   1.000  O
  O84      1.0000 0.81690  0.11880  0.28510  Biso   1.000  O
  C326     1.0000 0.77950  0.13930  0.18740  Biso   1.000  C
  C327     1.0000 0.69740  0.05310  0.05730  Biso   1.000  C
  C328     1.0000 0.73690  0.12900  0.15920  Biso   1.000  C
  C329     1.0000 0.73550  0.10050  0.11820  Biso   1.000  C
  C330     1.0000 0.69640  0.09020  0.09620  Biso   1.000  C
  C331     1.0000 0.65730  0.10880  0.11320  Biso   1.000  C
  C332     1.0000 0.65760  0.14190  0.14990  Biso   1.000  C
  C333     1.0000 0.69760  0.14820  0.17050  Biso   1.000  C
  C334     1.0000 0.61460  0.16040  0.16520  Biso   1.000  C
  C335     1.0000 0.53970  0.20960  0.18390  Biso   1.000  C
  C336     1.0000 0.83020  0.08320  0.26600  Biso   1.000  C
  C337     1.0000 0.81780  0.03790  0.28900  Biso   1.000  C
  C338     1.0000 0.78760  0.04280  0.32650  Biso   1.000  C
  C339     1.0000 0.74900  0.96840  0.41880  Biso   1.000  C
  C340     1.0000 0.72160  0.96890  0.45680  Biso   1.000  C
  C341     1.0000 0.68040  0.02960  0.42550  Biso   1.000  C
  C342     1.0000 0.70700  0.02970  0.38800  Biso   1.000  C
  C343     1.0000 0.57320  0.13990  0.16680  Biso   1.000  C
  C344     1.0000 0.53540  0.16530  0.17640  Biso   1.000  C
  C345     1.0000 0.57950  0.23090  0.18280  Biso   1.000  C
  C346     1.0000 0.61860  0.20530  0.17300  Biso   1.000  C
  C347     1.0000 0.59000  0.17720  0.12980  Biso   1.000  C
  C348     1.0000 0.56460  0.19250  0.21910  Biso   1.000  C
  C349     1.0000 0.60260  0.16780  0.20950  Biso   1.000  C
  C350     1.0000 0.55130  0.20260  0.13870  Biso   1.000  C
  O85      1.0000 0.87590  0.81240  0.16540  Biso   1.000  O
  O86      1.0000 0.83620  0.77410  0.21930  Biso   1.000  O
  O87      1.0000 0.95520  0.73383  0.04503  Biso   1.000  O
  O88      1.0000 0.95360  0.65751  0.04678  Biso   1.000  O
  O89      1.0000 0.92034  0.85670  0.23420  Biso   1.000  O
  O90      1.0000 0.88120  0.81690  0.28510  Biso   1.000  O
  C351     1.0000 0.86070  0.77950  0.18740  Biso   1.000  C
  C352     1.0000 0.94690  0.69740  0.05730  Biso   1.000  C
  C353     1.0000 0.87100  0.73690  0.15920  Biso   1.000  C
  C354     1.0000 0.89950  0.73550  0.11820  Biso   1.000  C
  C355     1.0000 0.90980  0.69640  0.09620  Biso   1.000  C
  C356     1.0000 0.89120  0.65730  0.11320  Biso   1.000  C
  C357     1.0000 0.85810  0.65760  0.14990  Biso   1.000  C
  C358     1.0000 0.85180  0.69760  0.17050  Biso   1.000  C
  C359     1.0000 0.83960  0.61460  0.16520  Biso   1.000  C
  C360     1.0000 0.79040  0.53970  0.18390  Biso   1.000  C
  C361     1.0000 0.91680  0.83020  0.26600  Biso   1.000  C
  C362     1.0000 0.96210  0.81780  0.28900  Biso   1.000  C
  C363     1.0000 0.95720  0.78760  0.32650  Biso   1.000  C
  C364     1.0000 0.03160  0.74900  0.41880  Biso   1.000  C
  C365     1.0000 0.03110  0.72160  0.45680  Biso   1.000  C
  C366     1.0000 0.97040  0.68040  0.42550  Biso   1.000  C
  C367     1.0000 0.97030  0.70700  0.38800  Biso   1.000  C
  C368     1.0000 0.86010  0.57320  0.16680  Biso   1.000  C
  C369     1.0000 0.83470  0.53540  0.17640  Biso   1.000  C
  C370     1.0000 0.76910  0.57950  0.18280  Biso   1.000  C
  C371     1.0000 0.79470  0.61860  0.17300  Biso   1.000  C
  C372     1.0000 0.82280  0.59000  0.12980  Biso   1.000  C
  C373     1.0000 0.80750  0.56460  0.21910  Biso   1.000  C
  C374     1.0000 0.83220  0.60260  0.20950  Biso   1.000  C
  C375     1.0000 0.79740  0.55130  0.13870  Biso   1.000  C
  O91      1.0000 0.12410  0.18760  0.16540  Biso   1.000  O
  O92      1.0000 0.16380  0.22590  0.21930  Biso   1.000  O
  O93      1.0000 0.04480  0.26617  0.04503  Biso   1.000  O
  O94      1.0000 0.04640  0.34249  0.04678  Biso   1.000  O
  O95      1.0000 0.07966  0.14330  0.23420  Biso   1.000  O
  O96      1.0000 0.11880  0.18310  0.28510  Biso   1.000  O
  C376     1.0000 0.13930  0.22050  0.18740  Biso   1.000  C
  C377     1.0000 0.05310  0.30260  0.05730  Biso   1.000  C
  C378     1.0000 0.12900  0.26310  0.15920  Biso   1.000  C
  C379     1.0000 0.10050  0.26450  0.11820  Biso   1.000  C
  C380     1.0000 0.09020  0.30360  0.09620  Biso   1.000  C
  C381     1.0000 0.10880  0.34270  0.11320  Biso   1.000  C
  C382     1.0000 0.14190  0.34240  0.14990  Biso   1.000  C
  C383     1.0000 0.14820  0.30240  0.17050  Biso   1.000  C
  C384     1.0000 0.16040  0.38540  0.16520  Biso   1.000  C
  C385     1.0000 0.20960  0.46030  0.18390  Biso   1.000  C
  C386     1.0000 0.08320  0.16980  0.26600  Biso   1.000  C
  C387     1.0000 0.03790  0.18220  0.28900  Biso   1.000  C
  C388     1.0000 0.04280  0.21240  0.32650  Biso   1.000  C
  C389     1.0000 0.96840  0.25100  0.41880  Biso   1.000  C
  C390     1.0000 0.96890  0.27840  0.45680  Biso   1.000  C
  C391     1.0000 0.02960  0.31960  0.42550  Biso   1.000  C
  C392     1.0000 0.02970  0.29300  0.38800  Biso   1.000  C
  C393     1.0000 0.13990  0.42680  0.16680  Biso   1.000  C
  C394     1.0000 0.16530  0.46460  0.17640  Biso   1.000  C
  C395     1.0000 0.23090  0.42050  0.18280  Biso   1.000  C
  C396     1.0000 0.20530  0.38140  0.17300  Biso   1.000  C
  C397     1.0000 0.17720  0.41000  0.12980  Biso   1.000  C
  C398     1.0000 0.19250  0.43540  0.21910  Biso   1.000  C
  C399     1.0000 0.16780  0.39740  0.20950  Biso   1.000  C
  C400     1.0000 0.20260  0.44870  0.13870  Biso   1.000  C
  Cu1      1.0000 0.13000  0.13000  0.19565  Biso   1.000  Cu
  Cu2      1.0000 0.17510  0.17510  0.25716  Biso   1.000  Cu
  Cu3      1.0000 0.87000  0.87000  0.19565  Biso   1.000  Cu
  Cu4      1.0000 0.82490  0.82490  0.25716  Biso   1.000  Cu
  Cu5      1.0000 0.87000  0.13000  0.19565  Biso   1.000  Cu
  Cu6      1.0000 0.82490  0.17510  0.25716  Biso   1.000  Cu
  Cu7      1.0000 0.13000  0.87000  0.19565  Biso   1.000  Cu
  Cu8      1.0000 0.17510  0.82490  0.25716  Biso   1.000  Cu
  Cu9      1.0000 0.87000  0.13000  0.80435  Biso   1.000  Cu
  Cu10     1.0000 0.82490  0.17510  0.74284  Biso   1.000  Cu
  Cu11     1.0000 0.13000  0.87000  0.80435  Biso   1.000  Cu
  Cu12     1.0000 0.17510  0.82490  0.74284  Biso   1.000  Cu
  Cu13     1.0000 0.13000  0.13000  0.80435  Biso   1.000  Cu
  Cu14     1.0000 0.17510  0.17510  0.74284  Biso   1.000  Cu
  Cu15     1.0000 0.87000  0.87000  0.80435  Biso   1.000  Cu
  Cu16     1.0000 0.82490  0.82490  0.74284  Biso   1.000  Cu
  Cu17     1.0000 0.26058  0.00000  0.00000  Biso   1.000  Cu
  Cu18     1.0000 0.34824  0.00000  0.00000  Biso   1.000  Cu
  Cu19     1.0000 0.73942  0.00000  0.00000  Biso   1.000  Cu
  Cu20     1.0000 0.65176  0.00000  0.00000  Biso   1.000  Cu
  Cu21     1.0000 0.00000  0.26058  0.00000  Biso   1.000  Cu
  Cu22     1.0000 0.00000  0.34824  0.00000  Biso   1.000  Cu
  Cu23     1.0000 0.00000  0.73942  0.00000  Biso   1.000  Cu
  Cu24     1.0000 0.00000  0.65176  0.00000  Biso   1.000  Cu
  O97      1.0000 0.33770  0.00000  0.50000  Biso   1.000  O
  O98      1.0000 0.66230  0.00000  0.50000  Biso   1.000  O
  O99      1.0000 0.00000  0.33770  0.50000  Biso   1.000  O
  O100     1.0000 0.00000  0.66230  0.50000  Biso   1.000  O
  C401     1.0000 0.16860  0.00000  0.27070  Biso   1.000  C
  C402     1.0000 0.22640  0.00000  0.34450  Biso   1.000  C
  C403     1.0000 0.25870  0.00000  0.38340  Biso   1.000  C
  C404     1.0000 0.31240  0.00000  0.45960  Biso   1.000  C
  C405     1.0000 0.83140  0.00000  0.27070  Biso   1.000  C
  C406     1.0000 0.77360  0.00000  0.34450  Biso   1.000  C
  C407     1.0000 0.74130  0.00000  0.38340  Biso   1.000  C
  C408     1.0000 0.68760  0.00000  0.45960  Biso   1.000  C
  C409     1.0000 0.00000  0.16860  0.27070  Biso   1.000  C
  C410     1.0000 0.00000  0.22640  0.34450  Biso   1.000  C
  C411     1.0000 0.00000  0.25870  0.38340  Biso   1.000  C
  C412     1.0000 0.00000  0.31240  0.45960  Biso   1.000  C
  C413     1.0000 0.00000  0.83140  0.27070  Biso   1.000  C
  C414     1.0000 0.00000  0.77360  0.34450  Biso   1.000  C
  C415     1.0000 0.00000  0.74130  0.38340  Biso   1.000  C
  C416     1.0000 0.00000  0.68760  0.45960  Biso   1.000  C
  C417     1.0000 0.83140  0.00000  0.72930  Biso   1.000  C
  C418     1.0000 0.77360  0.00000  0.65550  Biso   1.000  C
  C419     1.0000 0.74130  0.00000  0.61660  Biso   1.000  C
  C420     1.0000 0.68760  0.00000  0.54040  Biso   1.000  C
  C421     1.0000 0.16860  0.00000  0.72930  Biso   1.000  C
  C422     1.0000 0.22640  0.00000  0.65550  Biso   1.000  C
  C423     1.0000 0.25870  0.00000  0.61660  Biso   1.000  C
  C424     1.0000 0.31240  0.00000  0.54040  Biso   1.000  C
  C425     1.0000 0.00000  0.16860  0.72930  Biso   1.000  C
  C426     1.0000 0.00000  0.22640  0.65550  Biso   1.000  C
  C427     1.0000 0.00000  0.25870  0.61660  Biso   1.000  C
  C428     1.0000 0.00000  0.31240  0.54040  Biso   1.000  C
  C429     1.0000 0.00000  0.83140  0.72930  Biso   1.000  C
  C430     1.0000 0.00000  0.77360  0.65550  Biso   1.000  C
  C431     1.0000 0.00000  0.74130  0.61660  Biso   1.000  C
  C432     1.0000 0.00000  0.68760  0.54040  Biso   1.000  C
  O101     1.0000 0.50000  0.21610  0.20780  Biso   1.000  O
  O102     1.0000 0.50000  0.78390  0.20780  Biso   1.000  O
  O103     1.0000 0.78390  0.50000  0.20780  Biso   1.000  O
  O104     1.0000 0.21610  0.50000  0.20780  Biso   1.000  O
  O105     1.0000 0.50000  0.21610  0.79220  Biso   1.000  O
  O106     1.0000 0.50000  0.78390  0.79220  Biso   1.000  O
  O107     1.0000 0.21610  0.50000  0.79220  Biso   1.000  O
  O108     1.0000 0.78390  0.50000  0.79220  Biso   1.000  O
