data_image0
_cell_length_a       25.8297
_cell_length_b       8.756
_cell_length_c       17.7432
_cell_angle_alpha    90
_cell_angle_beta     99.951
_cell_angle_gamma    90

_symmetry_space_group_name_H-M    "P 1"
_symmetry_int_tables_number       1

loop_
  _symmetry_equiv_pos_as_xyz
  'x, y, z'

loop_
  _atom_site_label
  _atom_site_occupancy
  _atom_site_fract_x
  _atom_site_fract_y
  _atom_site_fract_z
  _atom_site_thermal_displace_type
  _atom_site_B_iso_or_equiv
  _atom_site_type_symbol
  U1       1.0000 0.43326  0.59178  0.35847  Biso   1.000  U
  U2       1.0000 0.25451  0.34909  0.40032  Biso   1.000  U
  C1       1.0000 0.37456  0.51510  0.10950  Biso   1.000  C
  H1       1.0000 0.36580  0.61440  0.13080  Biso   1.000  H
  H2       1.0000 0.37830  0.53340  0.05560  Biso   1.000  H
  C2       1.0000 0.31550  0.37310  0.18670  Biso   1.000  C
  H3       1.0000 0.34620  0.32100  0.21710  Biso   1.000  H
  H4       1.0000 0.28570  0.30010  0.18010  Biso   1.000  H
  C3       1.0000 0.33065  0.26420  0.06500  Biso   1.000  C
  H5       1.0000 0.30140  0.19720  0.07370  Biso   1.000  H
  H6       1.0000 0.36390  0.21120  0.08570  Biso   1.000  H
  F1       1.0000 0.23279  0.13210  0.46641  Biso   1.000  F
  N1       1.0000 0.32812  0.41010  0.10900  Biso   1.000  N
  H7       1.0000 0.30020  0.46600  0.08000  Biso   1.000  H
  O1       1.0000 0.43693  0.45680  0.24630  Biso   1.000  O
  O2       1.0000 0.47483  0.57970  0.13850  Biso   1.000  O
  O3       1.0000 0.45060  0.30050  0.13150  Biso   1.000  O
  H8       1.0000 0.43700  0.22830  0.16400  Biso   1.000  H
  O4       1.0000 0.34733  0.59360  0.29260  Biso   1.000  O
  O5       1.0000 0.25783  0.47160  0.28612  Biso   1.000  O
  O6       1.0000 0.27386  0.65550  0.18543  Biso   1.000  O
  O7       1.0000 0.28498  0.40470  0.93880  Biso   1.000  O
  O8       1.0000 0.30686  0.13000  0.93120  Biso   1.000  O
  H9       1.0000 0.33600  0.06200  0.93800  Biso   1.000  H
  O9       1.0000 0.38037  0.32320  0.94560  Biso   1.000  O
  P1       1.0000 0.43900  0.45588  0.16175  Biso   1.000  P
  P2       1.0000 0.29844  0.53666  0.24144  Biso   1.000  P
  P3       1.0000 0.32701  0.28900  0.96306  Biso   1.000  P
  H10      1.0000 0.31600  0.08800  0.88600  Biso   1.000  H
  U3       1.0000 0.93326  0.09178  0.35847  Biso   1.000  U
  U4       1.0000 0.75451  0.84909  0.40032  Biso   1.000  U
  C4       1.0000 0.87456  0.01510  0.10950  Biso   1.000  C
  H11      1.0000 0.86580  0.11440  0.13080  Biso   1.000  H
  H12      1.0000 0.87830  0.03340  0.05560  Biso   1.000  H
  C5       1.0000 0.81550  0.87310  0.18670  Biso   1.000  C
  H13      1.0000 0.84620  0.82100  0.21710  Biso   1.000  H
  H14      1.0000 0.78570  0.80010  0.18010  Biso   1.000  H
  C6       1.0000 0.83065  0.76420  0.06500  Biso   1.000  C
  H15      1.0000 0.80140  0.69720  0.07370  Biso   1.000  H
  H16      1.0000 0.86390  0.71120  0.08570  Biso   1.000  H
  F2       1.0000 0.73279  0.63210  0.46641  Biso   1.000  F
  N2       1.0000 0.82812  0.91010  0.10900  Biso   1.000  N
  H17      1.0000 0.80020  0.96600  0.08000  Biso   1.000  H
  O10      1.0000 0.93693  0.95680  0.24630  Biso   1.000  O
  O11      1.0000 0.97483  0.07970  0.13850  Biso   1.000  O
  O12      1.0000 0.95060  0.80050  0.13150  Biso   1.000  O
  H18      1.0000 0.93700  0.72830  0.16400  Biso   1.000  H
  O13      1.0000 0.84733  0.09360  0.29260  Biso   1.000  O
  O14      1.0000 0.75783  0.97160  0.28612  Biso   1.000  O
  O15      1.0000 0.77386  0.15550  0.18543  Biso   1.000  O
  O16      1.0000 0.78498  0.90470  0.93880  Biso   1.000  O
  O17      1.0000 0.80686  0.63000  0.93120  Biso   1.000  O
  H19      1.0000 0.83600  0.56200  0.93800  Biso   1.000  H
  O18      1.0000 0.88037  0.82320  0.94560  Biso   1.000  O
  P4       1.0000 0.93900  0.95588  0.16175  Biso   1.000  P
  P5       1.0000 0.79844  0.03666  0.24144  Biso   1.000  P
  P6       1.0000 0.82701  0.78900  0.96306  Biso   1.000  P
  H20      1.0000 0.81600  0.58800  0.88600  Biso   1.000  H
  U5       1.0000 0.56674  0.59178  0.14153  Biso   1.000  U
  U6       1.0000 0.74549  0.34909  0.09968  Biso   1.000  U
  C7       1.0000 0.62544  0.51510  0.39050  Biso   1.000  C
  H21      1.0000 0.63420  0.61440  0.36920  Biso   1.000  H
  H22      1.0000 0.62170  0.53340  0.44440  Biso   1.000  H
  C8       1.0000 0.68450  0.37310  0.31330  Biso   1.000  C
  H23      1.0000 0.65380  0.32100  0.28290  Biso   1.000  H
  H24      1.0000 0.71430  0.30010  0.31990  Biso   1.000  H
  C9       1.0000 0.66935  0.26420  0.43500  Biso   1.000  C
  H25      1.0000 0.69860  0.19720  0.42630  Biso   1.000  H
  H26      1.0000 0.63610  0.21120  0.41430  Biso   1.000  H
  F3       1.0000 0.76721  0.13210  0.03359  Biso   1.000  F
  N3       1.0000 0.67188  0.41010  0.39100  Biso   1.000  N
  H27      1.0000 0.69980  0.46600  0.42000  Biso   1.000  H
  O19      1.0000 0.56307  0.45680  0.25370  Biso   1.000  O
  O20      1.0000 0.52517  0.57970  0.36150  Biso   1.000  O
  O21      1.0000 0.54940  0.30050  0.36850  Biso   1.000  O
  H28      1.0000 0.56300  0.22830  0.33600  Biso   1.000  H
  O22      1.0000 0.65267  0.59360  0.20740  Biso   1.000  O
  O23      1.0000 0.74217  0.47160  0.21388  Biso   1.000  O
  O24      1.0000 0.72614  0.65550  0.31457  Biso   1.000  O
  O25      1.0000 0.71502  0.40470  0.56120  Biso   1.000  O
  O26      1.0000 0.69314  0.13000  0.56880  Biso   1.000  O
  H29      1.0000 0.66400  0.06200  0.56200  Biso   1.000  H
  O27      1.0000 0.61963  0.32320  0.55440  Biso   1.000  O
  P7       1.0000 0.56100  0.45588  0.33825  Biso   1.000  P
  P8       1.0000 0.70156  0.53666  0.25856  Biso   1.000  P
  P9       1.0000 0.67299  0.28900  0.53694  Biso   1.000  P
  H30      1.0000 0.68400  0.08800  0.61400  Biso   1.000  H
  U7       1.0000 0.06674  0.09178  0.14153  Biso   1.000  U
  U8       1.0000 0.24549  0.84909  0.09968  Biso   1.000  U
  C10      1.0000 0.12544  0.01510  0.39050  Biso   1.000  C
  H31      1.0000 0.13420  0.11440  0.36920  Biso   1.000  H
  H32      1.0000 0.12170  0.03340  0.44440  Biso   1.000  H
  C11      1.0000 0.18450  0.87310  0.31330  Biso   1.000  C
  H33      1.0000 0.15380  0.82100  0.28290  Biso   1.000  H
  H34      1.0000 0.21430  0.80010  0.31990  Biso   1.000  H
  C12      1.0000 0.16935  0.76420  0.43500  Biso   1.000  C
  H35      1.0000 0.19860  0.69720  0.42630  Biso   1.000  H
  H36      1.0000 0.13610  0.71120  0.41430  Biso   1.000  H
  F4       1.0000 0.26721  0.63210  0.03359  Biso   1.000  F
  N4       1.0000 0.17188  0.91010  0.39100  Biso   1.000  N
  H37      1.0000 0.19980  0.96600  0.42000  Biso   1.000  H
  O28      1.0000 0.06307  0.95680  0.25370  Biso   1.000  O
  O29      1.0000 0.02517  0.07970  0.36150  Biso   1.000  O
  O30      1.0000 0.04940  0.80050  0.36850  Biso   1.000  O
  H38      1.0000 0.06300  0.72830  0.33600  Biso   1.000  H
  O31      1.0000 0.15267  0.09360  0.20740  Biso   1.000  O
  O32      1.0000 0.24217  0.97160  0.21388  Biso   1.000  O
  O33      1.0000 0.22614  0.15550  0.31457  Biso   1.000  O
  O34      1.0000 0.21502  0.90470  0.56120  Biso   1.000  O
  O35      1.0000 0.19314  0.63000  0.56880  Biso   1.000  O
  H39      1.0000 0.16400  0.56200  0.56200  Biso   1.000  H
  O36      1.0000 0.11963  0.82320  0.55440  Biso   1.000  O
  P10      1.0000 0.06100  0.95588  0.33825  Biso   1.000  P
  P11      1.0000 0.20156  0.03666  0.25856  Biso   1.000  P
  P12      1.0000 0.17299  0.78900  0.53694  Biso   1.000  P
  H40      1.0000 0.18400  0.58800  0.61400  Biso   1.000  H
  U9       1.0000 0.56674  0.40822  0.64153  Biso   1.000  U
  U10      1.0000 0.74549  0.65091  0.59968  Biso   1.000  U
  C13      1.0000 0.62544  0.48490  0.89050  Biso   1.000  C
  H41      1.0000 0.63420  0.38560  0.86920  Biso   1.000  H
  H42      1.0000 0.62170  0.46660  0.94440  Biso   1.000  H
  C14      1.0000 0.68450  0.62690  0.81330  Biso   1.000  C
  H43      1.0000 0.65380  0.67900  0.78290  Biso   1.000  H
  H44      1.0000 0.71430  0.69990  0.81990  Biso   1.000  H
  C15      1.0000 0.66935  0.73580  0.93500  Biso   1.000  C
  H45      1.0000 0.69860  0.80280  0.92630  Biso   1.000  H
  H46      1.0000 0.63610  0.78880  0.91430  Biso   1.000  H
  F5       1.0000 0.76721  0.86790  0.53359  Biso   1.000  F
  N5       1.0000 0.67188  0.58990  0.89100  Biso   1.000  N
  H47      1.0000 0.69980  0.53400  0.92000  Biso   1.000  H
  O37      1.0000 0.56307  0.54320  0.75370  Biso   1.000  O
  O38      1.0000 0.52517  0.42030  0.86150  Biso   1.000  O
  O39      1.0000 0.54940  0.69950  0.86850  Biso   1.000  O
  H48      1.0000 0.56300  0.77170  0.83600  Biso   1.000  H
  O40      1.0000 0.65267  0.40640  0.70740  Biso   1.000  O
  O41      1.0000 0.74217  0.52840  0.71388  Biso   1.000  O
  O42      1.0000 0.72614  0.34450  0.81457  Biso   1.000  O
  O43      1.0000 0.71502  0.59530  0.06120  Biso   1.000  O
  O44      1.0000 0.69314  0.87000  0.06880  Biso   1.000  O
  H49      1.0000 0.66400  0.93800  0.06200  Biso   1.000  H
  O45      1.0000 0.61963  0.67680  0.05440  Biso   1.000  O
  P13      1.0000 0.56100  0.54412  0.83825  Biso   1.000  P
  P14      1.0000 0.70156  0.46334  0.75856  Biso   1.000  P
  P15      1.0000 0.67299  0.71100  0.03694  Biso   1.000  P
  H50      1.0000 0.68400  0.91200  0.11400  Biso   1.000  H
  U11      1.0000 0.06674  0.90822  0.64153  Biso   1.000  U
  U12      1.0000 0.24549  0.15091  0.59968  Biso   1.000  U
  C16      1.0000 0.12544  0.98490  0.89050  Biso   1.000  C
  H51      1.0000 0.13420  0.88560  0.86920  Biso   1.000  H
  H52      1.0000 0.12170  0.96660  0.94440  Biso   1.000  H
  C17      1.0000 0.18450  0.12690  0.81330  Biso   1.000  C
  H53      1.0000 0.15380  0.17900  0.78290  Biso   1.000  H
  H54      1.0000 0.21430  0.19990  0.81990  Biso   1.000  H
  C18      1.0000 0.16935  0.23580  0.93500  Biso   1.000  C
  H55      1.0000 0.19860  0.30280  0.92630  Biso   1.000  H
  H56      1.0000 0.13610  0.28880  0.91430  Biso   1.000  H
  F6       1.0000 0.26721  0.36790  0.53359  Biso   1.000  F
  N6       1.0000 0.17188  0.08990  0.89100  Biso   1.000  N
  H57      1.0000 0.19980  0.03400  0.92000  Biso   1.000  H
  O46      1.0000 0.06307  0.04320  0.75370  Biso   1.000  O
  O47      1.0000 0.02517  0.92030  0.86150  Biso   1.000  O
  O48      1.0000 0.04940  0.19950  0.86850  Biso   1.000  O
  H58      1.0000 0.06300  0.27170  0.83600  Biso   1.000  H
  O49      1.0000 0.15267  0.90640  0.70740  Biso   1.000  O
  O50      1.0000 0.24217  0.02840  0.71388  Biso   1.000  O
  O51      1.0000 0.22614  0.84450  0.81457  Biso   1.000  O
  O52      1.0000 0.21502  0.09530  0.06120  Biso   1.000  O
  O53      1.0000 0.19314  0.37000  0.06880  Biso   1.000  O
  H59      1.0000 0.16400  0.43800  0.06200  Biso   1.000  H
  O54      1.0000 0.11963  0.17680  0.05440  Biso   1.000  O
  P16      1.0000 0.06100  0.04412  0.83825  Biso   1.000  P
  P17      1.0000 0.20156  0.96334  0.75856  Biso   1.000  P
  P18      1.0000 0.17299  0.21100  0.03694  Biso   1.000  P
  H60      1.0000 0.18400  0.41200  0.11400  Biso   1.000  H
  U13      1.0000 0.43326  0.40822  0.85847  Biso   1.000  U
  U14      1.0000 0.25451  0.65091  0.90032  Biso   1.000  U
  C19      1.0000 0.37456  0.48490  0.60950  Biso   1.000  C
  H61      1.0000 0.36580  0.38560  0.63080  Biso   1.000  H
  H62      1.0000 0.37830  0.46660  0.55560  Biso   1.000  H
  C20      1.0000 0.31550  0.62690  0.68670  Biso   1.000  C
  H63      1.0000 0.34620  0.67900  0.71710  Biso   1.000  H
  H64      1.0000 0.28570  0.69990  0.68010  Biso   1.000  H
  C21      1.0000 0.33065  0.73580  0.56500  Biso   1.000  C
  H65      1.0000 0.30140  0.80280  0.57370  Biso   1.000  H
  H66      1.0000 0.36390  0.78880  0.58570  Biso   1.000  H
  F7       1.0000 0.23279  0.86790  0.96641  Biso   1.000  F
  N7       1.0000 0.32812  0.58990  0.60900  Biso   1.000  N
  H67      1.0000 0.30020  0.53400  0.58000  Biso   1.000  H
  O55      1.0000 0.43693  0.54320  0.74630  Biso   1.000  O
  O56      1.0000 0.47483  0.42030  0.63850  Biso   1.000  O
  O57      1.0000 0.45060  0.69950  0.63150  Biso   1.000  O
  H68      1.0000 0.43700  0.77170  0.66400  Biso   1.000  H
  O58      1.0000 0.34733  0.40640  0.79260  Biso   1.000  O
  O59      1.0000 0.25783  0.52840  0.78612  Biso   1.000  O
  O60      1.0000 0.27386  0.34450  0.68543  Biso   1.000  O
  O61      1.0000 0.28498  0.59530  0.43880  Biso   1.000  O
  O62      1.0000 0.30686  0.87000  0.43120  Biso   1.000  O
  H69      1.0000 0.33600  0.93800  0.43800  Biso   1.000  H
  O63      1.0000 0.38037  0.67680  0.44560  Biso   1.000  O
  P19      1.0000 0.43900  0.54412  0.66175  Biso   1.000  P
  P20      1.0000 0.29844  0.46334  0.74144  Biso   1.000  P
  P21      1.0000 0.32701  0.71100  0.46306  Biso   1.000  P
  H70      1.0000 0.31600  0.91200  0.38600  Biso   1.000  H
  U15      1.0000 0.93326  0.90822  0.85847  Biso   1.000  U
  U16      1.0000 0.75451  0.15091  0.90032  Biso   1.000  U
  C22      1.0000 0.87456  0.98490  0.60950  Biso   1.000  C
  H71      1.0000 0.86580  0.88560  0.63080  Biso   1.000  H
  H72      1.0000 0.87830  0.96660  0.55560  Biso   1.000  H
  C23      1.0000 0.81550  0.12690  0.68670  Biso   1.000  C
  H73      1.0000 0.84620  0.17900  0.71710  Biso   1.000  H
  H74      1.0000 0.78570  0.19990  0.68010  Biso   1.000  H
  C24      1.0000 0.83065  0.23580  0.56500  Biso   1.000  C
  H75      1.0000 0.80140  0.30280  0.57370  Biso   1.000  H
  H76      1.0000 0.86390  0.28880  0.58570  Biso   1.000  H
  F8       1.0000 0.73279  0.36790  0.96641  Biso   1.000  F
  N8       1.0000 0.82812  0.08990  0.60900  Biso   1.000  N
  H77      1.0000 0.80020  0.03400  0.58000  Biso   1.000  H
  O64      1.0000 0.93693  0.04320  0.74630  Biso   1.000  O
  O65      1.0000 0.97483  0.92030  0.63850  Biso   1.000  O
  O66      1.0000 0.95060  0.19950  0.63150  Biso   1.000  O
  H78      1.0000 0.93700  0.27170  0.66400  Biso   1.000  H
  O67      1.0000 0.84733  0.90640  0.79260  Biso   1.000  O
  O68      1.0000 0.75783  0.02840  0.78612  Biso   1.000  O
  O69      1.0000 0.77386  0.84450  0.68543  Biso   1.000  O
  O70      1.0000 0.78498  0.09530  0.43880  Biso   1.000  O
  O71      1.0000 0.80686  0.37000  0.43120  Biso   1.000  O
  H79      1.0000 0.83600  0.43800  0.43800  Biso   1.000  H
  O72      1.0000 0.88037  0.17680  0.44560  Biso   1.000  O
  P22      1.0000 0.93900  0.04412  0.66175  Biso   1.000  P
  P23      1.0000 0.79844  0.96334  0.74144  Biso   1.000  P
  P24      1.0000 0.82701  0.21100  0.46306  Biso   1.000  P
  H80      1.0000 0.81600  0.41200  0.38600  Biso   1.000  H
