data_image0
_cell_length_a       18.057
_cell_length_b       18.057
_cell_length_c       13.4495
_cell_angle_alpha    90
_cell_angle_beta     90
_cell_angle_gamma    90

_symmetry_space_group_name_H-M    "P 1"
_symmetry_int_tables_number       1

loop_
  _symmetry_equiv_pos_as_xyz
  'x, y, z'

loop_
  _atom_site_label
  _atom_site_occupancy
  _atom_site_fract_x
  _atom_site_fract_y
  _atom_site_fract_z
  _atom_site_thermal_displace_type
  _atom_site_B_iso_or_equiv
  _atom_site_type_symbol
  C1       1.0000 0.14420  0.16290  0.52490  Biso   1.000  C
  O1       1.0000 0.25527  0.23307  0.85267  Biso   1.000  O
  C2       1.0000 0.92949  0.22031  0.73015  Biso   1.000  C
  O2       1.0000 0.88760  0.19548  0.66253  Biso   1.000  O
  C3       1.0000 0.18675  0.24656  0.86290  Biso   1.000  C
  C4       1.0000 0.13528  0.22584  0.78173  Biso   1.000  C
  C5       1.0000 0.05928  0.23503  0.79313  Biso   1.000  C
  H1       1.0000 0.04040  0.25460  0.85180  Biso   1.000  H
  O3       1.0000 0.16414  0.27841  0.93897  Biso   1.000  O
  O4       1.0000 0.90231  0.24840  0.80605  Biso   1.000  O
  C6       1.0000 0.16340  0.21920  0.68410  Biso   1.000  C
  C7       1.0000 0.11740  0.20090  0.60650  Biso   1.000  C
  C8       1.0000 0.04030  0.20210  0.61740  Biso   1.000  C
  C9       1.0000 0.01188  0.21490  0.71686  Biso   1.000  C
  C10      1.0000 0.14580  0.11490  0.54240  Biso   1.000  C
  C11      1.0000 0.16350  0.17930  0.70320  Biso   1.000  C
  C12      1.0000 0.03730  0.17210  0.63900  Biso   1.000  C
  C13      1.0000 0.11390  0.15750  0.62890  Biso   1.000  C
  O5       1.0000 0.11490  0.14580  0.45760  Biso   1.000  O
  C14      1.0000 0.85580  0.83710  0.02490  Biso   1.000  C
  O6       1.0000 0.74473  0.76693  0.35267  Biso   1.000  O
  C15      1.0000 0.07051  0.77969  0.23015  Biso   1.000  C
  O7       1.0000 0.11240  0.80452  0.16253  Biso   1.000  O
  C16      1.0000 0.81325  0.75344  0.36290  Biso   1.000  C
  C17      1.0000 0.86472  0.77416  0.28173  Biso   1.000  C
  C18      1.0000 0.94072  0.76497  0.29313  Biso   1.000  C
  H2       1.0000 0.95960  0.74540  0.35180  Biso   1.000  H
  O8       1.0000 0.83586  0.72159  0.43897  Biso   1.000  O
  O9       1.0000 0.09769  0.75160  0.30605  Biso   1.000  O
  C19      1.0000 0.83660  0.78080  0.18410  Biso   1.000  C
  C20      1.0000 0.88260  0.79910  0.10650  Biso   1.000  C
  C21      1.0000 0.95970  0.79790  0.11740  Biso   1.000  C
  C22      1.0000 0.98812  0.78510  0.21686  Biso   1.000  C
  C23      1.0000 0.85420  0.88510  0.04240  Biso   1.000  C
  C24      1.0000 0.83650  0.82070  0.20320  Biso   1.000  C
  C25      1.0000 0.96270  0.82790  0.13900  Biso   1.000  C
  C26      1.0000 0.88610  0.84250  0.12890  Biso   1.000  C
  O10      1.0000 0.88510  0.85420  0.95760  Biso   1.000  O
  C27      1.0000 0.33710  0.64420  0.77490  Biso   1.000  C
  O11      1.0000 0.26693  0.75527  0.10267  Biso   1.000  O
  C28      1.0000 0.27969  0.42949  0.98015  Biso   1.000  C
  O12      1.0000 0.30452  0.38760  0.91253  Biso   1.000  O
  C29      1.0000 0.25344  0.68675  0.11290  Biso   1.000  C
  C30      1.0000 0.27416  0.63528  0.03173  Biso   1.000  C
  C31      1.0000 0.26497  0.55928  0.04313  Biso   1.000  C
  H3       1.0000 0.24540  0.54040  0.10180  Biso   1.000  H
  O13      1.0000 0.22159  0.66414  0.18897  Biso   1.000  O
  O14      1.0000 0.25160  0.40231  0.05605  Biso   1.000  O
  C32      1.0000 0.28080  0.66340  0.93410  Biso   1.000  C
  C33      1.0000 0.29910  0.61740  0.85650  Biso   1.000  C
  C34      1.0000 0.29790  0.54030  0.86740  Biso   1.000  C
  C35      1.0000 0.28510  0.51188  0.96686  Biso   1.000  C
  C36      1.0000 0.38510  0.64580  0.79240  Biso   1.000  C
  C37      1.0000 0.32070  0.66350  0.95320  Biso   1.000  C
  C38      1.0000 0.32790  0.53730  0.88900  Biso   1.000  C
  C39      1.0000 0.34250  0.61390  0.87890  Biso   1.000  C
  O15      1.0000 0.35420  0.61490  0.70760  Biso   1.000  O
  C40      1.0000 0.66290  0.35580  0.27490  Biso   1.000  C
  O16      1.0000 0.73307  0.24473  0.60267  Biso   1.000  O
  C41      1.0000 0.72031  0.57051  0.48015  Biso   1.000  C
  O17      1.0000 0.69548  0.61240  0.41253  Biso   1.000  O
  C42      1.0000 0.74656  0.31325  0.61290  Biso   1.000  C
  C43      1.0000 0.72584  0.36472  0.53173  Biso   1.000  C
  C44      1.0000 0.73503  0.44072  0.54313  Biso   1.000  C
  H4       1.0000 0.75460  0.45960  0.60180  Biso   1.000  H
  O18      1.0000 0.77841  0.33586  0.68897  Biso   1.000  O
  O19      1.0000 0.74840  0.59769  0.55605  Biso   1.000  O
  C45      1.0000 0.71920  0.33660  0.43410  Biso   1.000  C
  C46      1.0000 0.70090  0.38260  0.35650  Biso   1.000  C
  C47      1.0000 0.70210  0.45970  0.36740  Biso   1.000  C
  C48      1.0000 0.71490  0.48812  0.46686  Biso   1.000  C
  C49      1.0000 0.61490  0.35420  0.29240  Biso   1.000  C
  C50      1.0000 0.67930  0.33650  0.45320  Biso   1.000  C
  C51      1.0000 0.67210  0.46270  0.38900  Biso   1.000  C
  C52      1.0000 0.65750  0.38610  0.37890  Biso   1.000  C
  O20      1.0000 0.64580  0.38510  0.20760  Biso   1.000  O
  C53      1.0000 0.35580  0.66290  0.72510  Biso   1.000  C
  O21      1.0000 0.24473  0.73307  0.39733  Biso   1.000  O
  C54      1.0000 0.57051  0.72031  0.51985  Biso   1.000  C
  O22      1.0000 0.61240  0.69548  0.58747  Biso   1.000  O
  C55      1.0000 0.31325  0.74656  0.38710  Biso   1.000  C
  C56      1.0000 0.36472  0.72584  0.46827  Biso   1.000  C
  C57      1.0000 0.44072  0.73503  0.45687  Biso   1.000  C
  H5       1.0000 0.45960  0.75460  0.39820  Biso   1.000  H
  O23      1.0000 0.33586  0.77841  0.31103  Biso   1.000  O
  O24      1.0000 0.59769  0.74840  0.44395  Biso   1.000  O
  C58      1.0000 0.33660  0.71920  0.56590  Biso   1.000  C
  C59      1.0000 0.38260  0.70090  0.64350  Biso   1.000  C
  C60      1.0000 0.45970  0.70210  0.63260  Biso   1.000  C
  C61      1.0000 0.48812  0.71490  0.53314  Biso   1.000  C
  C62      1.0000 0.33650  0.67930  0.54680  Biso   1.000  C
  C63      1.0000 0.46270  0.67210  0.61100  Biso   1.000  C
  C64      1.0000 0.38610  0.65750  0.62110  Biso   1.000  C
  C65      1.0000 0.64420  0.33710  0.22510  Biso   1.000  C
  O25      1.0000 0.75527  0.26693  0.89733  Biso   1.000  O
  C66      1.0000 0.42949  0.27969  0.01985  Biso   1.000  C
  O26      1.0000 0.38760  0.30452  0.08747  Biso   1.000  O
  C67      1.0000 0.68675  0.25344  0.88710  Biso   1.000  C
  C68      1.0000 0.63528  0.27416  0.96827  Biso   1.000  C
  C69      1.0000 0.55928  0.26497  0.95687  Biso   1.000  C
  H6       1.0000 0.54040  0.24540  0.89820  Biso   1.000  H
  O27      1.0000 0.66414  0.22159  0.81103  Biso   1.000  O
  O28      1.0000 0.40231  0.25160  0.94395  Biso   1.000  O
  C70      1.0000 0.66340  0.28080  0.06590  Biso   1.000  C
  C71      1.0000 0.61740  0.29910  0.14350  Biso   1.000  C
  C72      1.0000 0.54030  0.29790  0.13260  Biso   1.000  C
  C73      1.0000 0.51188  0.28510  0.03314  Biso   1.000  C
  C74      1.0000 0.66350  0.32070  0.04680  Biso   1.000  C
  C75      1.0000 0.53730  0.32790  0.11100  Biso   1.000  C
  C76      1.0000 0.61390  0.34250  0.12110  Biso   1.000  C
  C77      1.0000 0.16290  0.14420  0.47510  Biso   1.000  C
  O29      1.0000 0.23307  0.25527  0.14733  Biso   1.000  O
  C78      1.0000 0.22031  0.92949  0.26985  Biso   1.000  C
  O30      1.0000 0.19548  0.88760  0.33747  Biso   1.000  O
  C79      1.0000 0.24656  0.18675  0.13710  Biso   1.000  C
  C80      1.0000 0.22584  0.13528  0.21827  Biso   1.000  C
  C81      1.0000 0.23503  0.05928  0.20687  Biso   1.000  C
  H7       1.0000 0.25460  0.04040  0.14820  Biso   1.000  H
  O31      1.0000 0.27841  0.16414  0.06103  Biso   1.000  O
  O32      1.0000 0.24840  0.90231  0.19395  Biso   1.000  O
  C82      1.0000 0.21920  0.16340  0.31590  Biso   1.000  C
  C83      1.0000 0.20090  0.11740  0.39350  Biso   1.000  C
  C84      1.0000 0.20210  0.04030  0.38260  Biso   1.000  C
  C85      1.0000 0.21490  0.01188  0.28314  Biso   1.000  C
  C86      1.0000 0.17930  0.16350  0.29680  Biso   1.000  C
  C87      1.0000 0.17210  0.03730  0.36100  Biso   1.000  C
  C88      1.0000 0.15750  0.11390  0.37110  Biso   1.000  C
  C89      1.0000 0.83710  0.85580  0.97510  Biso   1.000  C
  O33      1.0000 0.76693  0.74473  0.64733  Biso   1.000  O
  C90      1.0000 0.77969  0.07051  0.76985  Biso   1.000  C
  O34      1.0000 0.80452  0.11240  0.83747  Biso   1.000  O
  C91      1.0000 0.75344  0.81325  0.63710  Biso   1.000  C
  C92      1.0000 0.77416  0.86472  0.71827  Biso   1.000  C
  C93      1.0000 0.76497  0.94072  0.70687  Biso   1.000  C
  H8       1.0000 0.74540  0.95960  0.64820  Biso   1.000  H
  O35      1.0000 0.72159  0.83586  0.56103  Biso   1.000  O
  O36      1.0000 0.75160  0.09769  0.69395  Biso   1.000  O
  C94      1.0000 0.78080  0.83660  0.81590  Biso   1.000  C
  C95      1.0000 0.79910  0.88260  0.89350  Biso   1.000  C
  C96      1.0000 0.79790  0.95970  0.88260  Biso   1.000  C
  C97      1.0000 0.78510  0.98812  0.78314  Biso   1.000  C
  C98      1.0000 0.82070  0.83650  0.79680  Biso   1.000  C
  C99      1.0000 0.82790  0.96270  0.86100  Biso   1.000  C
  C100     1.0000 0.84250  0.88610  0.87110  Biso   1.000  C
  In1      1.0000 0.28400  0.28400  0.00000  Biso   1.000  In
  In2      1.0000 0.71600  0.71600  0.50000  Biso   1.000  In
  In3      1.0000 0.21600  0.78400  0.25000  Biso   1.000  In
  In4      1.0000 0.78400  0.21600  0.75000  Biso   1.000  In
