data_image0
_cell_length_a       13.2041
_cell_length_b       13.7867
_cell_length_c       15.3818
_cell_angle_alpha    93.625
_cell_angle_beta     101.696
_cell_angle_gamma    95.857

_symmetry_space_group_name_H-M    "P 1"
_symmetry_int_tables_number       1

loop_
  _symmetry_equiv_pos_as_xyz
  'x, y, z'

loop_
  _atom_site_label
  _atom_site_occupancy
  _atom_site_fract_x
  _atom_site_fract_y
  _atom_site_fract_z
  _atom_site_thermal_displace_type
  _atom_site_B_iso_or_equiv
  _atom_site_type_symbol
  Cd1      1.0000 0.63238  0.32349  0.33622  Biso   1.000  Cd
  Cd2      1.0000 0.12475  0.32025  0.29456  Biso   1.000  Cd
  P1       1.0000 0.38015  0.25389  0.37623  Biso   1.000  P
  P2       1.0000 0.15097  0.21757  0.09026  Biso   1.000  P
  P3       1.0000 0.59110  0.08703  0.22426  Biso   1.000  P
  P4       1.0000 0.86328  0.35453  0.26057  Biso   1.000  P
  C1       1.0000 0.35590  0.14890  0.43440  Biso   1.000  C
  H1       1.0000 0.30010  0.14760  0.46290  Biso   1.000  H
  C2       1.0000 0.40760  0.07570  0.44070  Biso   1.000  C
  H2       1.0000 0.46410  0.07370  0.41340  Biso   1.000  H
  H3       1.0000 0.38880  0.02420  0.47270  Biso   1.000  H
  C3       1.0000 0.14680  0.31820  0.02270  Biso   1.000  C
  C4       1.0000 0.06860  0.37110  0.01390  Biso   1.000  C
  H4       1.0000 0.04970  0.40240  0.96230  Biso   1.000  H
  H5       1.0000 0.03210  0.37730  0.05940  Biso   1.000  H
  C5       1.0000 0.62320  0.00220  0.30410  Biso   1.000  C
  H6       1.0000 0.57430  0.94810  0.30190  Biso   1.000  H
  C6       1.0000 0.70310  0.00680  0.36240  Biso   1.000  C
  H7       1.0000 0.75460  0.05940  0.36770  Biso   1.000  H
  H8       1.0000 0.71180  0.95770  0.40110  Biso   1.000  H
  C7       1.0000 0.83300  0.43410  0.17420  Biso   1.000  C
  H9       1.0000 0.83560  0.50090  0.18880  Biso   1.000  H
  C8       1.0000 0.80600  0.39800  0.08770  Biso   1.000  C
  H10      1.0000 0.80350  0.33150  0.07260  Biso   1.000  H
  H11      1.0000 0.79060  0.44040  0.04320  Biso   1.000  H
  C9       1.0000 0.60440  0.48700  0.19530  Biso   1.000  C
  H12      1.0000 0.64810  0.52350  0.24400  Biso   1.000  H
  C10      1.0000 0.57940  0.53140  0.11720  Biso   1.000  C
  C11      1.0000 0.51370  0.47770  0.04280  Biso   1.000  C
  C12      1.0000 0.47840  0.38300  0.05490  Biso   1.000  C
  H13      1.0000 0.43420  0.34450  0.00770  Biso   1.000  H
  C13      1.0000 0.50660  0.34440  0.13430  Biso   1.000  C
  H14      1.0000 0.48090  0.28010  0.13930  Biso   1.000  H
  C14      1.0000 0.09360  0.20180  0.46220  Biso   1.000  C
  H15      1.0000 0.12660  0.26130  0.49130  Biso   1.000  H
  C15      1.0000 0.06850  0.12850  0.51280  Biso   1.000  C
  H16      1.0000 0.08710  0.13850  0.57460  Biso   1.000  H
  C16      1.0000 0.01590  0.04000  0.47320  Biso   1.000  C
  C17      1.0000 0.99610  0.02990  0.38200  Biso   1.000  C
  H17      1.0000 0.96280  0.97120  0.35150  Biso   1.000  H
  C18      1.0000 0.02520  0.10620  0.33490  Biso   1.000  C
  H18      1.0000 0.01060  0.09690  0.27310  Biso   1.000  H
  C19      1.0000 0.31950  0.83990  0.03470  Biso   1.000  C
  H19      1.0000 0.27880  0.87280  0.99230  Biso   1.000  H
  C20      1.0000 0.27140  0.76400  0.07100  Biso   1.000  C
  H20      1.0000 0.19980  0.74740  0.05340  Biso   1.000  H
  C21      1.0000 0.32860  0.71290  0.13290  Biso   1.000  C
  C22      1.0000 0.43490  0.74380  0.15820  Biso   1.000  C
  H21      1.0000 0.47700  0.71300  0.20140  Biso   1.000  H
  C23      1.0000 0.47710  0.82020  0.11880  Biso   1.000  C
  H22      1.0000 0.54830  0.83940  0.13600  Biso   1.000  H
  C24      1.0000 0.28110  0.62680  0.17170  Biso   1.000  C
  C25      1.0000 0.17600  0.60820  0.16560  Biso   1.000  C
  H23      1.0000 0.13160  0.65040  0.13790  Biso   1.000  H
  C26      1.0000 0.13610  0.52670  0.20080  Biso   1.000  C
  H24      1.0000 0.06470  0.51670  0.19770  Biso   1.000  H
  C27      1.0000 0.29490  0.47980  0.24430  Biso   1.000  C
  H25      1.0000 0.33730  0.43500  0.27030  Biso   1.000  H
  C28      1.0000 0.34180  0.56170  0.21370  Biso   1.000  C
  H26      1.0000 0.41390  0.57230  0.22150  Biso   1.000  H
  C29      1.0000 0.02840  0.86680  0.16590  Biso   1.000  C
  H27      1.0000 0.95950  0.84650  0.13810  Biso   1.000  H
  C30      1.0000 0.07020  0.82480  0.24140  Biso   1.000  C
  H28      1.0000 0.03000  0.77700  0.26360  Biso   1.000  H
  C31      1.0000 0.17350  0.85400  0.28480  Biso   1.000  C
  C32      1.0000 0.22930  0.92390  0.24780  Biso   1.000  C
  H29      1.0000 0.29870  0.94470  0.27350  Biso   1.000  H
  C33      1.0000 0.18040  0.96280  0.17160  Biso   1.000  C
  H30      1.0000 0.21890  0.01080  0.14800  Biso   1.000  H
  C34      1.0000 0.21880  0.81150  0.36810  Biso   1.000  C
  C35      1.0000 0.16120  0.79220  0.43030  Biso   1.000  C
  H31      1.0000 0.09150  0.80290  0.41890  Biso   1.000  H
  C36      1.0000 0.20340  0.75750  0.50900  Biso   1.000  C
  H32      1.0000 0.16310  0.75110  0.55180  Biso   1.000  H
  C37      1.0000 0.35480  0.74890  0.46600  Biso   1.000  C
  H33      1.0000 0.42290  0.73330  0.47710  Biso   1.000  H
  C38      1.0000 0.31850  0.78760  0.38720  Biso   1.000  C
  H34      1.0000 0.36160  0.79760  0.34690  Biso   1.000  H
  N1       1.0000 0.56970  0.39480  0.20540  Biso   1.000  N
  N2       1.0000 0.07320  0.19230  0.37370  Biso   1.000  N
  N3       1.0000 0.42140  0.86850  0.05730  Biso   1.000  N
  N4       1.0000 0.19460  0.46190  0.23880  Biso   1.000  N
  N5       1.0000 0.08250  0.93590  0.13050  Biso   1.000  N
  N6       1.0000 0.29950  0.73250  0.52720  Biso   1.000  N
  O1       1.0000 0.28300  0.25890  0.30530  Biso   1.000  O
  O2       1.0000 0.40480  0.34200  0.44380  Biso   1.000  O
  O3       1.0000 0.47170  0.23700  0.33290  Biso   1.000  O
  O4       1.0000 0.08320  0.22970  0.15690  Biso   1.000  O
  O5       1.0000 0.26780  0.22160  0.13910  Biso   1.000  O
  H35      1.0000 0.27290  0.23360  0.19280  Biso   1.000  H
  O6       1.0000 0.12490  0.12700  0.02790  Biso   1.000  O
  O7       1.0000 0.47350  0.09970  0.21830  Biso   1.000  O
  H36      1.0000 0.46850  0.14410  0.25480  Biso   1.000  H
  O8       1.0000 0.65770  0.18260  0.25600  Biso   1.000  O
  O9       1.0000 0.60300  0.04100  0.13660  Biso   1.000  O
  O10      1.0000 0.79660  0.38240  0.32420  Biso   1.000  O
  O11      1.0000 0.97680  0.38480  0.29150  Biso   1.000  O
  O12      1.0000 0.84680  0.24160  0.23700  Biso   1.000  O
  H37      1.0000 0.78820  0.21990  0.24180  Biso   1.000  H
  C39      1.0000 0.17350  0.32570  0.95730  Biso   1.000  C
  H38      1.0000 0.13950  0.36320  0.91490  Biso   1.000  H
  H39      1.0000 0.22930  0.29440  0.94630  Biso   1.000  H
  C40      1.0000 0.80580  0.36850  0.14860  Biso   1.000  C
  H40      1.0000 0.76380  0.31700  0.11270  Biso   1.000  H
  C41      1.0000 0.82400  0.45660  0.11600  Biso   1.000  C
  H41      1.0000 0.86670  0.50750  0.15310  Biso   1.000  H
  H42      1.0000 0.79520  0.46590  0.05780  Biso   1.000  H
  Cd3      1.0000 0.36762  0.67651  0.66378  Biso   1.000  Cd
  Cd4      1.0000 0.87525  0.67975  0.70544  Biso   1.000  Cd
  P5       1.0000 0.61985  0.74611  0.62377  Biso   1.000  P
  P6       1.0000 0.84903  0.78243  0.90974  Biso   1.000  P
  P7       1.0000 0.40890  0.91297  0.77574  Biso   1.000  P
  P8       1.0000 0.13672  0.64547  0.73943  Biso   1.000  P
  C42      1.0000 0.64410  0.85110  0.56560  Biso   1.000  C
  H43      1.0000 0.69990  0.85240  0.53710  Biso   1.000  H
  C43      1.0000 0.59240  0.92430  0.55930  Biso   1.000  C
  H44      1.0000 0.53590  0.92630  0.58660  Biso   1.000  H
  H45      1.0000 0.61120  0.97580  0.52730  Biso   1.000  H
  C44      1.0000 0.85320  0.68180  0.97730  Biso   1.000  C
  C45      1.0000 0.93140  0.62890  0.98610  Biso   1.000  C
  H46      1.0000 0.95030  0.59760  0.03770  Biso   1.000  H
  H47      1.0000 0.96790  0.62270  0.94060  Biso   1.000  H
  C46      1.0000 0.37680  0.99780  0.69590  Biso   1.000  C
  H48      1.0000 0.42570  0.05190  0.69810  Biso   1.000  H
  C47      1.0000 0.29690  0.99320  0.63760  Biso   1.000  C
  H49      1.0000 0.24540  0.94060  0.63230  Biso   1.000  H
  H50      1.0000 0.28820  0.04230  0.59890  Biso   1.000  H
  C48      1.0000 0.16700  0.56590  0.82580  Biso   1.000  C
  H51      1.0000 0.16440  0.49910  0.81120  Biso   1.000  H
  C49      1.0000 0.19400  0.60200  0.91230  Biso   1.000  C
  H52      1.0000 0.19650  0.66850  0.92740  Biso   1.000  H
  H53      1.0000 0.20940  0.55960  0.95680  Biso   1.000  H
  C50      1.0000 0.39560  0.51300  0.80470  Biso   1.000  C
  H54      1.0000 0.35190  0.47650  0.75600  Biso   1.000  H
  C51      1.0000 0.42060  0.46860  0.88280  Biso   1.000  C
  C52      1.0000 0.48630  0.52230  0.95720  Biso   1.000  C
  C53      1.0000 0.52160  0.61700  0.94510  Biso   1.000  C
  H55      1.0000 0.56580  0.65550  0.99230  Biso   1.000  H
  C54      1.0000 0.49340  0.65560  0.86570  Biso   1.000  C
  H56      1.0000 0.51910  0.71990  0.86070  Biso   1.000  H
  C55      1.0000 0.90640  0.79820  0.53780  Biso   1.000  C
  H57      1.0000 0.87340  0.73870  0.50870  Biso   1.000  H
  C56      1.0000 0.93150  0.87150  0.48720  Biso   1.000  C
  H58      1.0000 0.91290  0.86150  0.42540  Biso   1.000  H
  C57      1.0000 0.98410  0.96000  0.52680  Biso   1.000  C
  C58      1.0000 0.00390  0.97010  0.61800  Biso   1.000  C
  H59      1.0000 0.03720  0.02880  0.64850  Biso   1.000  H
  C59      1.0000 0.97480  0.89380  0.66510  Biso   1.000  C
  H60      1.0000 0.98940  0.90310  0.72690  Biso   1.000  H
  C60      1.0000 0.68050  0.16010  0.96530  Biso   1.000  C
  H61      1.0000 0.72120  0.12720  0.00770  Biso   1.000  H
  C61      1.0000 0.72860  0.23600  0.92900  Biso   1.000  C
  H62      1.0000 0.80020  0.25260  0.94660  Biso   1.000  H
  C62      1.0000 0.67140  0.28710  0.86710  Biso   1.000  C
  C63      1.0000 0.56510  0.25620  0.84180  Biso   1.000  C
  H63      1.0000 0.52300  0.28700  0.79860  Biso   1.000  H
  C64      1.0000 0.52290  0.17980  0.88120  Biso   1.000  C
  H64      1.0000 0.45170  0.16060  0.86400  Biso   1.000  H
  C65      1.0000 0.71890  0.37320  0.82830  Biso   1.000  C
  C66      1.0000 0.82400  0.39180  0.83440  Biso   1.000  C
  H65      1.0000 0.86840  0.34960  0.86210  Biso   1.000  H
  C67      1.0000 0.86390  0.47330  0.79920  Biso   1.000  C
  H66      1.0000 0.93530  0.48330  0.80230  Biso   1.000  H
  C68      1.0000 0.70510  0.52020  0.75570  Biso   1.000  C
  H67      1.0000 0.66270  0.56500  0.72970  Biso   1.000  H
  C69      1.0000 0.65820  0.43830  0.78630  Biso   1.000  C
  H68      1.0000 0.58610  0.42770  0.77850  Biso   1.000  H
  C70      1.0000 0.97160  0.13320  0.83410  Biso   1.000  C
  H69      1.0000 0.04050  0.15350  0.86190  Biso   1.000  H
  C71      1.0000 0.92980  0.17520  0.75860  Biso   1.000  C
  H70      1.0000 0.97000  0.22300  0.73640  Biso   1.000  H
  C72      1.0000 0.82650  0.14600  0.71520  Biso   1.000  C
  C73      1.0000 0.77070  0.07610  0.75220  Biso   1.000  C
  H71      1.0000 0.70130  0.05530  0.72650  Biso   1.000  H
  C74      1.0000 0.81960  0.03720  0.82840  Biso   1.000  C
  H72      1.0000 0.78110  0.98920  0.85200  Biso   1.000  H
  C75      1.0000 0.78120  0.18850  0.63190  Biso   1.000  C
  C76      1.0000 0.83880  0.20780  0.56970  Biso   1.000  C
  H73      1.0000 0.90850  0.19710  0.58110  Biso   1.000  H
  C77      1.0000 0.79660  0.24250  0.49100  Biso   1.000  C
  H74      1.0000 0.83690  0.24890  0.44820  Biso   1.000  H
  C78      1.0000 0.64520  0.25110  0.53400  Biso   1.000  C
  H75      1.0000 0.57710  0.26670  0.52290  Biso   1.000  H
  C79      1.0000 0.68150  0.21240  0.61280  Biso   1.000  C
  H76      1.0000 0.63840  0.20240  0.65310  Biso   1.000  H
  N7       1.0000 0.43030  0.60520  0.79460  Biso   1.000  N
  N8       1.0000 0.92680  0.80770  0.62630  Biso   1.000  N
  N9       1.0000 0.57860  0.13150  0.94270  Biso   1.000  N
  N10      1.0000 0.80540  0.53810  0.76120  Biso   1.000  N
  N11      1.0000 0.91750  0.06410  0.86950  Biso   1.000  N
  N12      1.0000 0.70050  0.26750  0.47280  Biso   1.000  N
  O13      1.0000 0.71700  0.74110  0.69470  Biso   1.000  O
  O14      1.0000 0.59520  0.65800  0.55620  Biso   1.000  O
  O15      1.0000 0.52830  0.76300  0.66710  Biso   1.000  O
  O16      1.0000 0.91680  0.77030  0.84310  Biso   1.000  O
  O17      1.0000 0.73220  0.77840  0.86090  Biso   1.000  O
  H77      1.0000 0.72710  0.76640  0.80720  Biso   1.000  H
  O18      1.0000 0.87510  0.87300  0.97210  Biso   1.000  O
  O19      1.0000 0.52650  0.90030  0.78170  Biso   1.000  O
  H78      1.0000 0.53150  0.85590  0.74520  Biso   1.000  H
  O20      1.0000 0.34230  0.81740  0.74400  Biso   1.000  O
  O21      1.0000 0.39700  0.95900  0.86340  Biso   1.000  O
  O22      1.0000 0.20340  0.61760  0.67580  Biso   1.000  O
  O23      1.0000 0.02320  0.61520  0.70850  Biso   1.000  O
  O24      1.0000 0.15320  0.75840  0.76300  Biso   1.000  O
  H79      1.0000 0.21180  0.78010  0.75820  Biso   1.000  H
  C80      1.0000 0.82650  0.67430  0.04270  Biso   1.000  C
  H80      1.0000 0.86050  0.63680  0.08510  Biso   1.000  H
  H81      1.0000 0.77070  0.70560  0.05370  Biso   1.000  H
  C81      1.0000 0.19420  0.63150  0.85140  Biso   1.000  C
  H82      1.0000 0.23620  0.68300  0.88730  Biso   1.000  H
  C82      1.0000 0.17600  0.54340  0.88400  Biso   1.000  C
  H83      1.0000 0.13330  0.49250  0.84690  Biso   1.000  H
  H84      1.0000 0.20480  0.53410  0.94220  Biso   1.000  H
  Cd5      1.0000 0.50000  0.00000  0.00000  Biso   1.000  Cd
  Cd6      1.0000 0.00000  0.00000  0.00000  Biso   1.000  Cd
