data_image0
_cell_length_a       14.4784
_cell_length_b       13.8157
_cell_length_c       19.3044
_cell_angle_alpha    90
_cell_angle_beta     104.539
_cell_angle_gamma    90

_symmetry_space_group_name_H-M    "P 1"
_symmetry_int_tables_number       1

loop_
  _symmetry_equiv_pos_as_xyz
  'x, y, z'

loop_
  _atom_site_label
  _atom_site_occupancy
  _atom_site_fract_x
  _atom_site_fract_y
  _atom_site_fract_z
  _atom_site_thermal_displace_type
  _atom_site_B_iso_or_equiv
  _atom_site_type_symbol
  Ca1      1.0000 0.09796  0.45358  0.19342  Biso   1.000  Ca
  S1       1.0000 0.05363  0.24547  0.07124  Biso   1.000  S
  O1       1.0000 0.03420  0.45630  0.84873  Biso   1.000  O
  O2       1.0000 0.14690  0.44350  0.79113  Biso   1.000  O
  O3       1.0000 0.05700  0.33780  0.10040  Biso   1.000  O
  O4       1.0000 0.04450  0.16930  0.12580  Biso   1.000  O
  O5       1.0000 0.98750  0.23000  0.00590  Biso   1.000  O
  C1       1.0000 0.17220  0.21950  0.06140  Biso   1.000  C
  C2       1.0000 0.20400  0.26130  0.00460  Biso   1.000  C
  C3       1.0000 0.14460  0.32420  0.95570  Biso   1.000  C
  H1       1.0000 0.08650  0.34180  0.96430  Biso   1.000  H
  C4       1.0000 0.26670  0.34090  0.88790  Biso   1.000  C
  C5       1.0000 0.16610  0.35930  0.89890  Biso   1.000  C
  C6       1.0000 0.11160  0.42480  0.84180  Biso   1.000  C
  N1       1.0000 0.03100  0.19370  0.25400  Biso   1.000  N
  C7       1.0000 0.97770  0.27020  0.24500  Biso   1.000  C
  H2       1.0000 0.92280  0.25740  0.20680  Biso   1.000  H
  C8       1.0000 0.13140  0.20280  0.29110  Biso   1.000  C
  H3       1.0000 0.15290  0.26830  0.28960  Biso   1.000  H
  H4       1.0000 0.14020  0.18300  0.34000  Biso   1.000  H
  H5       1.0000 0.16750  0.16100  0.26790  Biso   1.000  H
  C9       1.0000 0.03360  0.09800  0.26160  Biso   1.000  C
  H6       1.0000 0.96860  0.08060  0.23980  Biso   1.000  H
  H7       1.0000 0.07540  0.06170  0.23980  Biso   1.000  H
  H8       1.0000 0.04810  0.08360  0.31190  Biso   1.000  H
  O6       1.0000 0.08820  0.31270  0.13010  Biso   1.000  O
  O7       1.0000 0.05440  0.15100  0.08340  Biso   1.000  O
  O8       1.0000 0.95580  0.28610  0.02740  Biso   1.000  O
  C10      1.0000 0.12780  0.27780  0.01020  Biso   1.000  C
  C11      1.0000 0.09730  0.33780  0.94780  Biso   1.000  C
  H9       1.0000 0.03620  0.36400  0.93640  Biso   1.000  H
  C12      1.0000 0.22280  0.24180  0.02530  Biso   1.000  C
  C13      1.0000 0.24500  0.31430  0.91210  Biso   1.000  C
  Ca2      1.0000 0.59796  0.95358  0.19342  Biso   1.000  Ca
  S2       1.0000 0.55363  0.74547  0.07124  Biso   1.000  S
  O9       1.0000 0.53420  0.95630  0.84873  Biso   1.000  O
  O10      1.0000 0.64690  0.94350  0.79113  Biso   1.000  O
  O11      1.0000 0.55700  0.83780  0.10040  Biso   1.000  O
  O12      1.0000 0.54450  0.66930  0.12580  Biso   1.000  O
  O13      1.0000 0.48750  0.73000  0.00590  Biso   1.000  O
  C14      1.0000 0.67220  0.71950  0.06140  Biso   1.000  C
  C15      1.0000 0.70400  0.76130  0.00460  Biso   1.000  C
  C16      1.0000 0.64460  0.82420  0.95570  Biso   1.000  C
  H10      1.0000 0.58650  0.84180  0.96430  Biso   1.000  H
  C17      1.0000 0.76670  0.84090  0.88790  Biso   1.000  C
  C18      1.0000 0.66610  0.85930  0.89890  Biso   1.000  C
  C19      1.0000 0.61160  0.92480  0.84180  Biso   1.000  C
  N2       1.0000 0.53100  0.69370  0.25400  Biso   1.000  N
  C20      1.0000 0.47770  0.77020  0.24500  Biso   1.000  C
  H11      1.0000 0.42280  0.75740  0.20680  Biso   1.000  H
  C21      1.0000 0.63140  0.70280  0.29110  Biso   1.000  C
  H12      1.0000 0.65290  0.76830  0.28960  Biso   1.000  H
  H13      1.0000 0.64020  0.68300  0.34000  Biso   1.000  H
  H14      1.0000 0.66750  0.66100  0.26790  Biso   1.000  H
  C22      1.0000 0.53360  0.59800  0.26160  Biso   1.000  C
  H15      1.0000 0.46860  0.58060  0.23980  Biso   1.000  H
  H16      1.0000 0.57540  0.56170  0.23980  Biso   1.000  H
  H17      1.0000 0.54810  0.58360  0.31190  Biso   1.000  H
  O14      1.0000 0.58820  0.81270  0.13010  Biso   1.000  O
  O15      1.0000 0.55440  0.65100  0.08340  Biso   1.000  O
  O16      1.0000 0.45580  0.78610  0.02740  Biso   1.000  O
  C23      1.0000 0.62780  0.77780  0.01020  Biso   1.000  C
  C24      1.0000 0.59730  0.83780  0.94780  Biso   1.000  C
  H18      1.0000 0.53620  0.86400  0.93640  Biso   1.000  H
  C25      1.0000 0.72280  0.74180  0.02530  Biso   1.000  C
  C26      1.0000 0.74500  0.81430  0.91210  Biso   1.000  C
  Ca3      1.0000 0.90204  0.45358  0.30658  Biso   1.000  Ca
  S3       1.0000 0.94637  0.24547  0.42876  Biso   1.000  S
  O17      1.0000 0.96580  0.45630  0.65127  Biso   1.000  O
  O18      1.0000 0.85310  0.44350  0.70887  Biso   1.000  O
  O19      1.0000 0.94300  0.33780  0.39960  Biso   1.000  O
  O20      1.0000 0.95550  0.16930  0.37420  Biso   1.000  O
  O21      1.0000 0.01250  0.23000  0.49410  Biso   1.000  O
  C27      1.0000 0.82780  0.21950  0.43860  Biso   1.000  C
  C28      1.0000 0.79600  0.26130  0.49540  Biso   1.000  C
  C29      1.0000 0.85540  0.32420  0.54430  Biso   1.000  C
  H19      1.0000 0.91350  0.34180  0.53570  Biso   1.000  H
  C30      1.0000 0.73330  0.34090  0.61210  Biso   1.000  C
  C31      1.0000 0.83390  0.35930  0.60110  Biso   1.000  C
  C32      1.0000 0.88840  0.42480  0.65820  Biso   1.000  C
  N3       1.0000 0.96900  0.19370  0.24600  Biso   1.000  N
  C33      1.0000 0.02230  0.27020  0.25500  Biso   1.000  C
  H20      1.0000 0.07720  0.25740  0.29320  Biso   1.000  H
  C34      1.0000 0.86860  0.20280  0.20890  Biso   1.000  C
  H21      1.0000 0.84710  0.26830  0.21040  Biso   1.000  H
  H22      1.0000 0.85980  0.18300  0.16000  Biso   1.000  H
  H23      1.0000 0.83250  0.16100  0.23210  Biso   1.000  H
  C35      1.0000 0.96640  0.09800  0.23840  Biso   1.000  C
  H24      1.0000 0.03140  0.08060  0.26020  Biso   1.000  H
  H25      1.0000 0.92460  0.06170  0.26020  Biso   1.000  H
  H26      1.0000 0.95190  0.08360  0.18810  Biso   1.000  H
  O22      1.0000 0.91180  0.31270  0.36990  Biso   1.000  O
  O23      1.0000 0.94560  0.15100  0.41660  Biso   1.000  O
  O24      1.0000 0.04420  0.28610  0.47260  Biso   1.000  O
  C36      1.0000 0.87220  0.27780  0.48980  Biso   1.000  C
  C37      1.0000 0.90270  0.33780  0.55220  Biso   1.000  C
  H27      1.0000 0.96380  0.36400  0.56360  Biso   1.000  H
  C38      1.0000 0.77720  0.24180  0.47470  Biso   1.000  C
  C39      1.0000 0.75500  0.31430  0.58790  Biso   1.000  C
  Ca4      1.0000 0.40204  0.95358  0.30658  Biso   1.000  Ca
  S4       1.0000 0.44637  0.74547  0.42876  Biso   1.000  S
  O25      1.0000 0.46580  0.95630  0.65127  Biso   1.000  O
  O26      1.0000 0.35310  0.94350  0.70887  Biso   1.000  O
  O27      1.0000 0.44300  0.83780  0.39960  Biso   1.000  O
  O28      1.0000 0.45550  0.66930  0.37420  Biso   1.000  O
  O29      1.0000 0.51250  0.73000  0.49410  Biso   1.000  O
  C40      1.0000 0.32780  0.71950  0.43860  Biso   1.000  C
  C41      1.0000 0.29600  0.76130  0.49540  Biso   1.000  C
  C42      1.0000 0.35540  0.82420  0.54430  Biso   1.000  C
  H28      1.0000 0.41350  0.84180  0.53570  Biso   1.000  H
  C43      1.0000 0.23330  0.84090  0.61210  Biso   1.000  C
  C44      1.0000 0.33390  0.85930  0.60110  Biso   1.000  C
  C45      1.0000 0.38840  0.92480  0.65820  Biso   1.000  C
  N4       1.0000 0.46900  0.69370  0.24600  Biso   1.000  N
  C46      1.0000 0.52230  0.77020  0.25500  Biso   1.000  C
  H29      1.0000 0.57720  0.75740  0.29320  Biso   1.000  H
  C47      1.0000 0.36860  0.70280  0.20890  Biso   1.000  C
  H30      1.0000 0.34710  0.76830  0.21040  Biso   1.000  H
  H31      1.0000 0.35980  0.68300  0.16000  Biso   1.000  H
  H32      1.0000 0.33250  0.66100  0.23210  Biso   1.000  H
  C48      1.0000 0.46640  0.59800  0.23840  Biso   1.000  C
  H33      1.0000 0.53140  0.58060  0.26020  Biso   1.000  H
  H34      1.0000 0.42460  0.56170  0.26020  Biso   1.000  H
  H35      1.0000 0.45190  0.58360  0.18810  Biso   1.000  H
  O30      1.0000 0.41180  0.81270  0.36990  Biso   1.000  O
  O31      1.0000 0.44560  0.65100  0.41660  Biso   1.000  O
  O32      1.0000 0.54420  0.78610  0.47260  Biso   1.000  O
  C49      1.0000 0.37220  0.77780  0.48980  Biso   1.000  C
  C50      1.0000 0.40270  0.83780  0.55220  Biso   1.000  C
  H36      1.0000 0.46380  0.86400  0.56360  Biso   1.000  H
  C51      1.0000 0.27720  0.74180  0.47470  Biso   1.000  C
  C52      1.0000 0.25500  0.81430  0.58790  Biso   1.000  C
  Ca5      1.0000 0.90204  0.54642  0.80658  Biso   1.000  Ca
  S5       1.0000 0.94637  0.75453  0.92876  Biso   1.000  S
  O33      1.0000 0.96580  0.54370  0.15127  Biso   1.000  O
  O34      1.0000 0.85310  0.55650  0.20887  Biso   1.000  O
  O35      1.0000 0.94300  0.66220  0.89960  Biso   1.000  O
  O36      1.0000 0.95550  0.83070  0.87420  Biso   1.000  O
  O37      1.0000 0.01250  0.77000  0.99410  Biso   1.000  O
  C53      1.0000 0.82780  0.78050  0.93860  Biso   1.000  C
  C54      1.0000 0.79600  0.73870  0.99540  Biso   1.000  C
  C55      1.0000 0.85540  0.67580  0.04430  Biso   1.000  C
  H37      1.0000 0.91350  0.65820  0.03570  Biso   1.000  H
  C56      1.0000 0.73330  0.65910  0.11210  Biso   1.000  C
  C57      1.0000 0.83390  0.64070  0.10110  Biso   1.000  C
  C58      1.0000 0.88840  0.57520  0.15820  Biso   1.000  C
  N5       1.0000 0.96900  0.80630  0.74600  Biso   1.000  N
  C59      1.0000 0.02230  0.72980  0.75500  Biso   1.000  C
  H38      1.0000 0.07720  0.74260  0.79320  Biso   1.000  H
  C60      1.0000 0.86860  0.79720  0.70890  Biso   1.000  C
  H39      1.0000 0.84710  0.73170  0.71040  Biso   1.000  H
  H40      1.0000 0.85980  0.81700  0.66000  Biso   1.000  H
  H41      1.0000 0.83250  0.83900  0.73210  Biso   1.000  H
  C61      1.0000 0.96640  0.90200  0.73840  Biso   1.000  C
  H42      1.0000 0.03140  0.91940  0.76020  Biso   1.000  H
  H43      1.0000 0.92460  0.93830  0.76020  Biso   1.000  H
  H44      1.0000 0.95190  0.91640  0.68810  Biso   1.000  H
  O38      1.0000 0.91180  0.68730  0.86990  Biso   1.000  O
  O39      1.0000 0.94560  0.84900  0.91660  Biso   1.000  O
  O40      1.0000 0.04420  0.71390  0.97260  Biso   1.000  O
  C62      1.0000 0.87220  0.72220  0.98980  Biso   1.000  C
  C63      1.0000 0.90270  0.66220  0.05220  Biso   1.000  C
  H45      1.0000 0.96380  0.63600  0.06360  Biso   1.000  H
  C64      1.0000 0.77720  0.75820  0.97470  Biso   1.000  C
  C65      1.0000 0.75500  0.68570  0.08790  Biso   1.000  C
  Ca6      1.0000 0.40204  0.04642  0.80658  Biso   1.000  Ca
  S6       1.0000 0.44637  0.25453  0.92876  Biso   1.000  S
  O41      1.0000 0.46580  0.04370  0.15127  Biso   1.000  O
  O42      1.0000 0.35310  0.05650  0.20887  Biso   1.000  O
  O43      1.0000 0.44300  0.16220  0.89960  Biso   1.000  O
  O44      1.0000 0.45550  0.33070  0.87420  Biso   1.000  O
  O45      1.0000 0.51250  0.27000  0.99410  Biso   1.000  O
  C66      1.0000 0.32780  0.28050  0.93860  Biso   1.000  C
  C67      1.0000 0.29600  0.23870  0.99540  Biso   1.000  C
  C68      1.0000 0.35540  0.17580  0.04430  Biso   1.000  C
  H46      1.0000 0.41350  0.15820  0.03570  Biso   1.000  H
  C69      1.0000 0.23330  0.15910  0.11210  Biso   1.000  C
  C70      1.0000 0.33390  0.14070  0.10110  Biso   1.000  C
  C71      1.0000 0.38840  0.07520  0.15820  Biso   1.000  C
  N6       1.0000 0.46900  0.30630  0.74600  Biso   1.000  N
  C72      1.0000 0.52230  0.22980  0.75500  Biso   1.000  C
  H47      1.0000 0.57720  0.24260  0.79320  Biso   1.000  H
  C73      1.0000 0.36860  0.29720  0.70890  Biso   1.000  C
  H48      1.0000 0.34710  0.23170  0.71040  Biso   1.000  H
  H49      1.0000 0.35980  0.31700  0.66000  Biso   1.000  H
  H50      1.0000 0.33250  0.33900  0.73210  Biso   1.000  H
  C74      1.0000 0.46640  0.40200  0.73840  Biso   1.000  C
  H51      1.0000 0.53140  0.41940  0.76020  Biso   1.000  H
  H52      1.0000 0.42460  0.43830  0.76020  Biso   1.000  H
  H53      1.0000 0.45190  0.41640  0.68810  Biso   1.000  H
  O46      1.0000 0.41180  0.18730  0.86990  Biso   1.000  O
  O47      1.0000 0.44560  0.34900  0.91660  Biso   1.000  O
  O48      1.0000 0.54420  0.21390  0.97260  Biso   1.000  O
  C75      1.0000 0.37220  0.22220  0.98980  Biso   1.000  C
  C76      1.0000 0.40270  0.16220  0.05220  Biso   1.000  C
  H54      1.0000 0.46380  0.13600  0.06360  Biso   1.000  H
  C77      1.0000 0.27720  0.25820  0.97470  Biso   1.000  C
  C78      1.0000 0.25500  0.18570  0.08790  Biso   1.000  C
  Ca7      1.0000 0.09796  0.54642  0.69342  Biso   1.000  Ca
  S7       1.0000 0.05363  0.75453  0.57124  Biso   1.000  S
  O49      1.0000 0.03420  0.54370  0.34873  Biso   1.000  O
  O50      1.0000 0.14690  0.55650  0.29113  Biso   1.000  O
  O51      1.0000 0.05700  0.66220  0.60040  Biso   1.000  O
  O52      1.0000 0.04450  0.83070  0.62580  Biso   1.000  O
  O53      1.0000 0.98750  0.77000  0.50590  Biso   1.000  O
  C79      1.0000 0.17220  0.78050  0.56140  Biso   1.000  C
  C80      1.0000 0.20400  0.73870  0.50460  Biso   1.000  C
  C81      1.0000 0.14460  0.67580  0.45570  Biso   1.000  C
  H55      1.0000 0.08650  0.65820  0.46430  Biso   1.000  H
  C82      1.0000 0.26670  0.65910  0.38790  Biso   1.000  C
  C83      1.0000 0.16610  0.64070  0.39890  Biso   1.000  C
  C84      1.0000 0.11160  0.57520  0.34180  Biso   1.000  C
  N7       1.0000 0.03100  0.80630  0.75400  Biso   1.000  N
  C85      1.0000 0.97770  0.72980  0.74500  Biso   1.000  C
  H56      1.0000 0.92280  0.74260  0.70680  Biso   1.000  H
  C86      1.0000 0.13140  0.79720  0.79110  Biso   1.000  C
  H57      1.0000 0.15290  0.73170  0.78960  Biso   1.000  H
  H58      1.0000 0.14020  0.81700  0.84000  Biso   1.000  H
  H59      1.0000 0.16750  0.83900  0.76790  Biso   1.000  H
  C87      1.0000 0.03360  0.90200  0.76160  Biso   1.000  C
  H60      1.0000 0.96860  0.91940  0.73980  Biso   1.000  H
  H61      1.0000 0.07540  0.93830  0.73980  Biso   1.000  H
  H62      1.0000 0.04810  0.91640  0.81190  Biso   1.000  H
  O54      1.0000 0.08820  0.68730  0.63010  Biso   1.000  O
  O55      1.0000 0.05440  0.84900  0.58340  Biso   1.000  O
  O56      1.0000 0.95580  0.71390  0.52740  Biso   1.000  O
  C88      1.0000 0.12780  0.72220  0.51020  Biso   1.000  C
  C89      1.0000 0.09730  0.66220  0.44780  Biso   1.000  C
  H63      1.0000 0.03620  0.63600  0.43640  Biso   1.000  H
  C90      1.0000 0.22280  0.75820  0.52530  Biso   1.000  C
  C91      1.0000 0.24500  0.68570  0.41210  Biso   1.000  C
  Ca8      1.0000 0.59796  0.04642  0.69342  Biso   1.000  Ca
  S8       1.0000 0.55363  0.25453  0.57124  Biso   1.000  S
  O57      1.0000 0.53420  0.04370  0.34873  Biso   1.000  O
  O58      1.0000 0.64690  0.05650  0.29113  Biso   1.000  O
  O59      1.0000 0.55700  0.16220  0.60040  Biso   1.000  O
  O60      1.0000 0.54450  0.33070  0.62580  Biso   1.000  O
  O61      1.0000 0.48750  0.27000  0.50590  Biso   1.000  O
  C92      1.0000 0.67220  0.28050  0.56140  Biso   1.000  C
  C93      1.0000 0.70400  0.23870  0.50460  Biso   1.000  C
  C94      1.0000 0.64460  0.17580  0.45570  Biso   1.000  C
  H64      1.0000 0.58650  0.15820  0.46430  Biso   1.000  H
  C95      1.0000 0.76670  0.15910  0.38790  Biso   1.000  C
  C96      1.0000 0.66610  0.14070  0.39890  Biso   1.000  C
  C97      1.0000 0.61160  0.07520  0.34180  Biso   1.000  C
  N8       1.0000 0.53100  0.30630  0.75400  Biso   1.000  N
  C98      1.0000 0.47770  0.22980  0.74500  Biso   1.000  C
  H65      1.0000 0.42280  0.24260  0.70680  Biso   1.000  H
  C99      1.0000 0.63140  0.29720  0.79110  Biso   1.000  C
  H66      1.0000 0.65290  0.23170  0.78960  Biso   1.000  H
  H67      1.0000 0.64020  0.31700  0.84000  Biso   1.000  H
  H68      1.0000 0.66750  0.33900  0.76790  Biso   1.000  H
  C100     1.0000 0.53360  0.40200  0.76160  Biso   1.000  C
  H69      1.0000 0.46860  0.41940  0.73980  Biso   1.000  H
  H70      1.0000 0.57540  0.43830  0.73980  Biso   1.000  H
  H71      1.0000 0.54810  0.41640  0.81190  Biso   1.000  H
  O62      1.0000 0.58820  0.18730  0.63010  Biso   1.000  O
  O63      1.0000 0.55440  0.34900  0.58340  Biso   1.000  O
  O64      1.0000 0.45580  0.21390  0.52740  Biso   1.000  O
  C101     1.0000 0.62780  0.22220  0.51020  Biso   1.000  C
  C102     1.0000 0.59730  0.16220  0.44780  Biso   1.000  C
  H72      1.0000 0.53620  0.13600  0.43640  Biso   1.000  H
  C103     1.0000 0.72280  0.25820  0.52530  Biso   1.000  C
  C104     1.0000 0.74500  0.18570  0.41210  Biso   1.000  C
  O65      1.0000 0.00000  0.35480  0.25000  Biso   1.000  O
  O66      1.0000 0.50000  0.85480  0.25000  Biso   1.000  O
  O67      1.0000 0.00000  0.64520  0.75000  Biso   1.000  O
  O68      1.0000 0.50000  0.14520  0.75000  Biso   1.000  O
