data_image0
_cell_length_a       25.5782
_cell_length_b       25.6108
_cell_length_c       11.5927
_cell_angle_alpha    90
_cell_angle_beta     90
_cell_angle_gamma    90

_symmetry_space_group_name_H-M    "P 1"
_symmetry_int_tables_number       1

loop_
  _symmetry_equiv_pos_as_xyz
  'x, y, z'

loop_
  _atom_site_label
  _atom_site_occupancy
  _atom_site_fract_x
  _atom_site_fract_y
  _atom_site_fract_z
  _atom_site_thermal_displace_type
  _atom_site_B_iso_or_equiv
  _atom_site_type_symbol
  Ag1      1.0000 0.26780  0.17241  0.28060  Biso   1.000  Ag
  Ag2      1.0000 0.33822  0.28348  0.22372  Biso   1.000  Ag
  Ag3      1.0000 0.15444  0.23690  0.21459  Biso   1.000  Ag
  Ag4      1.0000 0.22353  0.34835  0.27064  Biso   1.000  Ag
  Ag5      1.0000 0.99160  0.37101  0.49451  Biso   1.000  Ag
  Ag6      1.0000 0.13020  0.00151  0.03035  Biso   1.000  Ag
  N1       1.0000 0.34459  0.18228  0.35520  Biso   1.000  N
  N2       1.0000 0.37894  0.22075  0.31620  Biso   1.000  N
  N3       1.0000 0.42434  0.16952  0.42820  Biso   1.000  N
  N4       1.0000 0.28737  0.39072  0.18590  Biso   1.000  N
  N5       1.0000 0.32541  0.35840  0.13940  Biso   1.000  N
  N6       1.0000 0.33140  0.43572  0.05210  Biso   1.000  N
  N7       1.0000 0.16264  0.15503  0.16440  Biso   1.000  N
  N8       1.0000 0.19930  0.12841  0.22690  Biso   1.000  N
  N9       1.0000 0.15654  0.07095  0.12030  Biso   1.000  N
  N10      1.0000 0.11311  0.30751  0.26470  Biso   1.000  N
  N11      1.0000 0.14249  0.34070  0.33450  Biso   1.000  N
  N12      1.0000 0.05989  0.34363  0.39420  Biso   1.000  N
  N13      1.0000 0.04365  0.99780  0.98910  Biso   1.000  N
  N14      1.0000 0.99980  0.45620  0.53600  Biso   1.000  N
  C1       1.0000 0.37200  0.15325  0.42280  Biso   1.000  C
  C2       1.0000 0.34710  0.10900  0.48990  Biso   1.000  C
  H1       1.0000 0.30870  0.11280  0.47500  Biso   1.000  H
  C3       1.0000 0.36310  0.05560  0.42400  Biso   1.000  C
  H2       1.0000 0.35030  0.05680  0.34430  Biso   1.000  H
  H3       1.0000 0.34740  0.02570  0.46380  Biso   1.000  H
  H4       1.0000 0.40120  0.05200  0.42380  Biso   1.000  H
  C4       1.0000 0.35210  0.11490  0.61400  Biso   1.000  C
  H5       1.0000 0.34000  0.14970  0.63670  Biso   1.000  H
  H6       1.0000 0.38890  0.11070  0.63610  Biso   1.000  H
  H7       1.0000 0.33100  0.08830  0.65290  Biso   1.000  H
  C5       1.0000 0.42453  0.21131  0.36020  Biso   1.000  C
  C6       1.0000 0.47400  0.24240  0.33810  Biso   1.000  C
  H8       1.0000 0.49990  0.23200  0.39850  Biso   1.000  H
  C7       1.0000 0.49800  0.22920  0.22170  Biso   1.000  C
  H9       1.0000 0.53380  0.24290  0.21830  Biso   1.000  H
  H10      1.0000 0.47710  0.24510  0.16020  Biso   1.000  H
  H11      1.0000 0.49870  0.19130  0.21170  Biso   1.000  H
  C8       1.0000 0.46510  0.30150  0.35080  Biso   1.000  C
  H12      1.0000 0.46350  0.31060  0.43280  Biso   1.000  H
  H13      1.0000 0.43210  0.31120  0.31340  Biso   1.000  H
  H14      1.0000 0.49400  0.32040  0.31430  Biso   1.000  H
  C9       1.0000 0.29270  0.43530  0.13330  Biso   1.000  C
  C10      1.0000 0.26160  0.48353  0.15930  Biso   1.000  C
  H15      1.0000 0.27170  0.51090  0.10210  Biso   1.000  H
  C11      1.0000 0.27460  0.50460  0.28190  Biso   1.000  C
  H16      1.0000 0.31070  0.51740  0.28340  Biso   1.000  H
  H17      1.0000 0.27060  0.47640  0.33840  Biso   1.000  H
  H18      1.0000 0.25070  0.53320  0.30110  Biso   1.000  H
  C12      1.0000 0.20160  0.47490  0.15010  Biso   1.000  C
  H19      1.0000 0.19270  0.46440  0.07120  Biso   1.000  H
  H20      1.0000 0.18340  0.50750  0.16900  Biso   1.000  H
  H21      1.0000 0.19090  0.44750  0.20410  Biso   1.000  H
  C13      1.0000 0.34965  0.38535  0.05630  Biso   1.000  C
  C14      1.0000 0.39210  0.36689  0.97870  Biso   1.000  C
  H22      1.0000 0.42310  0.39040  0.98560  Biso   1.000  H
  C15      1.0000 0.40790  0.31310  0.99440  Biso   1.000  C
  H23      1.0000 0.43330  0.31100  0.05750  Biso   1.000  H
  H24      1.0000 0.42380  0.30020  0.92320  Biso   1.000  H
  H25      1.0000 0.37720  0.29190  0.01330  Biso   1.000  H
  C16      1.0000 0.36930  0.36950  0.85140  Biso   1.000  C
  H26      1.0000 0.36100  0.40580  0.83200  Biso   1.000  H
  H27      1.0000 0.33760  0.34820  0.84650  Biso   1.000  H
  H28      1.0000 0.39540  0.35610  0.79710  Biso   1.000  H
  C17      1.0000 0.13817  0.12010  0.10070  Biso   1.000  C
  C18      1.0000 0.09720  0.13230  0.01280  Biso   1.000  C
  H29      1.0000 0.07660  0.09910  0.00910  Biso   1.000  H
  C19      1.0000 0.05750  0.17110  0.04750  Biso   1.000  C
  H30      1.0000 0.04280  0.16130  0.12250  Biso   1.000  H
  H31      1.0000 0.02960  0.17210  0.98970  Biso   1.000  H
  H32      1.0000 0.07390  0.20560  0.05330  Biso   1.000  H
  C20      1.0000 0.12050  0.13620  0.89180  Biso   1.000  C
  H33      1.0000 0.09230  0.13640  0.83460  Biso   1.000  H
  H34      1.0000 0.14350  0.10620  0.87790  Biso   1.000  H
  H35      1.0000 0.14080  0.16850  0.88530  Biso   1.000  H
  C21      1.0000 0.19421  0.07740  0.19840  Biso   1.000  C
  C22      1.0000 0.22630  0.03700  0.26070  Biso   1.000  C
  H36      1.0000 0.24920  0.05560  0.31720  Biso   1.000  H
  C23      1.0000 0.19320  0.99790  0.32740  Biso   1.000  C
  H37      1.0000 0.17380  0.01610  0.38810  Biso   1.000  H
  H38      1.0000 0.21600  0.97150  0.36240  Biso   1.000  H
  H39      1.0000 0.16860  0.98080  0.27480  Biso   1.000  H
  C24      1.0000 0.26060  0.00930  0.17710  Biso   1.000  C
  H40      1.0000 0.27850  0.98050  0.21630  Biso   1.000  H
  H41      1.0000 0.28650  0.03370  0.14620  Biso   1.000  H
  H42      1.0000 0.23940  0.99540  0.11390  Biso   1.000  H
  C25      1.0000 0.06422  0.31151  0.30490  Biso   1.000  C
  C26      1.0000 0.01910  0.27950  0.25060  Biso   1.000  C
  H43      1.0000 0.03280  0.26370  0.17770  Biso   1.000  H
  C27      1.0000 0.97410  0.31440  0.21820  Biso   1.000  C
  H44      1.0000 0.95130  0.29620  0.16340  Biso   1.000  H
  H45      1.0000 0.98760  0.34640  0.18260  Biso   1.000  H
  H46      1.0000 0.95410  0.32340  0.28760  Biso   1.000  H
  C28      1.0000 0.00530  0.23540  0.32980  Biso   1.000  C
  H47      1.0000 0.98820  0.20750  0.28570  Biso   1.000  H
  H48      1.0000 0.98140  0.24800  0.38980  Biso   1.000  H
  H49      1.0000 0.03710  0.22170  0.36580  Biso   1.000  H
  C29      1.0000 0.10956  0.36093  0.40950  Biso   1.000  C
  C30      1.0000 0.12451  0.39661  0.50670  Biso   1.000  C
  H50      1.0000 0.09950  0.42660  0.50710  Biso   1.000  H
  C31      1.0000 0.17990  0.41870  0.50030  Biso   1.000  C
  H51      1.0000 0.18460  0.43710  0.42680  Biso   1.000  H
  H52      1.0000 0.20530  0.39010  0.50570  Biso   1.000  H
  H53      1.0000 0.18540  0.44320  0.56420  Biso   1.000  H
  C32      1.0000 0.11810  0.36700  0.62010  Biso   1.000  C
  H54      1.0000 0.08590  0.34620  0.61740  Biso   1.000  H
  H55      1.0000 0.11600  0.39190  0.68410  Biso   1.000  H
  H56      1.0000 0.14810  0.34380  0.63160  Biso   1.000  H
  C33      1.0000 0.02080  0.95150  0.23640  Biso   1.000  C
  H57      1.0000 0.02010  0.95310  0.32090  Biso   1.000  H
  H58      1.0000 0.05690  0.94670  0.21000  Biso   1.000  H
  H59      1.0000 0.99940  0.92210  0.21000  Biso   1.000  H
  C34      1.0000 0.05400  0.50070  0.28390  Biso   1.000  C
  H60      1.0000 0.05030  0.51350  0.20460  Biso   1.000  H
  H61      1.0000 0.06840  0.46530  0.28290  Biso   1.000  H
  H62      1.0000 0.07750  0.52380  0.32690  Biso   1.000  H
  C35      1.0000 0.02676  0.99830  0.87770  Biso   1.000  C
  C36      1.0000 0.06430  0.99240  0.77620  Biso   1.000  C
  H63      1.0000 0.09680  0.99070  0.82380  Biso   1.000  H
  C37      1.0000 0.08920  0.01810  0.67420  Biso   1.000  C
  H64      1.0000 0.10110  0.99130  0.61980  Biso   1.000  H
  H65      1.0000 0.11920  0.03900  0.69980  Biso   1.000  H
  H66      1.0000 0.06370  0.04090  0.63620  Biso   1.000  H
  C38      1.0000 0.06290  0.93430  0.74610  Biso   1.000  C
  H67      1.0000 0.08620  0.92750  0.68080  Biso   1.000  H
  H68      1.0000 0.02710  0.92420  0.72550  Biso   1.000  H
  H69      1.0000 0.07440  0.91380  0.81290  Biso   1.000  H
  C39      1.0000 0.99840  0.43470  0.74790  Biso   1.000  C
  H70      1.0000 0.01030  0.40040  0.71590  Biso   1.000  H
  C40      1.0000 0.94490  0.42660  0.79800  Biso   1.000  C
  H71      1.0000 0.92090  0.41520  0.73710  Biso   1.000  H
  H72      1.0000 0.93230  0.45950  0.83110  Biso   1.000  H
  H73      1.0000 0.94650  0.40000  0.85850  Biso   1.000  H
  C41      1.0000 0.03870  0.45240  0.83290  Biso   1.000  C
  H74      1.0000 0.07270  0.45490  0.79460  Biso   1.000  H
  H75      1.0000 0.04080  0.42730  0.89640  Biso   1.000  H
  H76      1.0000 0.02880  0.48670  0.86340  Biso   1.000  H
  C42      1.0000 0.00000  0.47424  0.65040  Biso   1.000  C
  C43      1.0000 0.01730  0.05010  0.23610  Biso   1.000  C
  H77      1.0000 0.01680  0.04860  0.32060  Biso   1.000  H
  H78      1.0000 0.00620  0.92220  0.20960  Biso   1.000  H
  H79      1.0000 0.96200  0.99870  0.20970  Biso   1.000  H
  H80      1.0000 0.99950  0.53900  0.34270  Biso   1.000  H
  H81      1.0000 0.05290  0.05740  0.20950  Biso   1.000  H
  N15      1.0000 0.00000  0.52576  0.65040  Biso   1.000  N
  Ag7      1.0000 0.73220  0.82758  0.28060  Biso   1.000  Ag
  Ag8      1.0000 0.66178  0.71652  0.22372  Biso   1.000  Ag
  Ag9      1.0000 0.84556  0.76310  0.21459  Biso   1.000  Ag
  Ag10     1.0000 0.77647  0.65165  0.27064  Biso   1.000  Ag
  Ag11     1.0000 0.00840  0.62899  0.49451  Biso   1.000  Ag
  Ag12     1.0000 0.86980  0.99849  0.03035  Biso   1.000  Ag
  N16      1.0000 0.65541  0.81772  0.35520  Biso   1.000  N
  N17      1.0000 0.62106  0.77925  0.31620  Biso   1.000  N
  N18      1.0000 0.57566  0.83048  0.42820  Biso   1.000  N
  N19      1.0000 0.71263  0.60928  0.18590  Biso   1.000  N
  N20      1.0000 0.67459  0.64160  0.13940  Biso   1.000  N
  N21      1.0000 0.66860  0.56428  0.05210  Biso   1.000  N
  N22      1.0000 0.83736  0.84497  0.16440  Biso   1.000  N
  N23      1.0000 0.80070  0.87159  0.22690  Biso   1.000  N
  N24      1.0000 0.84346  0.92905  0.12030  Biso   1.000  N
  N25      1.0000 0.88689  0.69249  0.26470  Biso   1.000  N
  N26      1.0000 0.85751  0.65930  0.33450  Biso   1.000  N
  N27      1.0000 0.94011  0.65637  0.39420  Biso   1.000  N
  N28      1.0000 0.95635  0.00220  0.98910  Biso   1.000  N
  N29      1.0000 0.00020  0.54380  0.53600  Biso   1.000  N
  C44      1.0000 0.62800  0.84675  0.42280  Biso   1.000  C
  C45      1.0000 0.65290  0.89100  0.48990  Biso   1.000  C
  H82      1.0000 0.69130  0.88720  0.47500  Biso   1.000  H
  C46      1.0000 0.63690  0.94440  0.42400  Biso   1.000  C
  H83      1.0000 0.64970  0.94320  0.34430  Biso   1.000  H
  H84      1.0000 0.65260  0.97430  0.46380  Biso   1.000  H
  H85      1.0000 0.59880  0.94800  0.42380  Biso   1.000  H
  C47      1.0000 0.64790  0.88510  0.61400  Biso   1.000  C
  H86      1.0000 0.66000  0.85030  0.63670  Biso   1.000  H
  H87      1.0000 0.61110  0.88930  0.63610  Biso   1.000  H
  H88      1.0000 0.66900  0.91170  0.65290  Biso   1.000  H
  C48      1.0000 0.57547  0.78869  0.36020  Biso   1.000  C
  C49      1.0000 0.52600  0.75760  0.33810  Biso   1.000  C
  H89      1.0000 0.50010  0.76800  0.39850  Biso   1.000  H
  C50      1.0000 0.50200  0.77080  0.22170  Biso   1.000  C
  H90      1.0000 0.46620  0.75710  0.21830  Biso   1.000  H
  H91      1.0000 0.52290  0.75490  0.16020  Biso   1.000  H
  H92      1.0000 0.50130  0.80870  0.21170  Biso   1.000  H
  C51      1.0000 0.53490  0.69850  0.35080  Biso   1.000  C
  H93      1.0000 0.53650  0.68940  0.43280  Biso   1.000  H
  H94      1.0000 0.56790  0.68880  0.31340  Biso   1.000  H
  H95      1.0000 0.50600  0.67960  0.31430  Biso   1.000  H
  C52      1.0000 0.70730  0.56470  0.13330  Biso   1.000  C
  C53      1.0000 0.73840  0.51647  0.15930  Biso   1.000  C
  H96      1.0000 0.72830  0.48910  0.10210  Biso   1.000  H
  C54      1.0000 0.72540  0.49540  0.28190  Biso   1.000  C
  H97      1.0000 0.68930  0.48260  0.28340  Biso   1.000  H
  H98      1.0000 0.72940  0.52360  0.33840  Biso   1.000  H
  H99      1.0000 0.74930  0.46680  0.30110  Biso   1.000  H
  C55      1.0000 0.79840  0.52510  0.15010  Biso   1.000  C
  H100     1.0000 0.80730  0.53560  0.07120  Biso   1.000  H
  H101     1.0000 0.81660  0.49250  0.16900  Biso   1.000  H
  H102     1.0000 0.80910  0.55250  0.20410  Biso   1.000  H
  C56      1.0000 0.65035  0.61465  0.05630  Biso   1.000  C
  C57      1.0000 0.60790  0.63311  0.97870  Biso   1.000  C
  H103     1.0000 0.57690  0.60960  0.98560  Biso   1.000  H
  C58      1.0000 0.59210  0.68690  0.99440  Biso   1.000  C
  H104     1.0000 0.56670  0.68900  0.05750  Biso   1.000  H
  H105     1.0000 0.57620  0.69980  0.92320  Biso   1.000  H
  H106     1.0000 0.62280  0.70810  0.01330  Biso   1.000  H
  C59      1.0000 0.63070  0.63050  0.85140  Biso   1.000  C
  H107     1.0000 0.63900  0.59420  0.83200  Biso   1.000  H
  H108     1.0000 0.66240  0.65180  0.84650  Biso   1.000  H
  H109     1.0000 0.60460  0.64390  0.79710  Biso   1.000  H
  C60      1.0000 0.86183  0.87990  0.10070  Biso   1.000  C
  C61      1.0000 0.90280  0.86770  0.01280  Biso   1.000  C
  H110     1.0000 0.92340  0.90090  0.00910  Biso   1.000  H
  C62      1.0000 0.94250  0.82890  0.04750  Biso   1.000  C
  H111     1.0000 0.95720  0.83870  0.12250  Biso   1.000  H
  H112     1.0000 0.97040  0.82790  0.98970  Biso   1.000  H
  H113     1.0000 0.92610  0.79440  0.05330  Biso   1.000  H
  C63      1.0000 0.87950  0.86380  0.89180  Biso   1.000  C
  H114     1.0000 0.90770  0.86360  0.83460  Biso   1.000  H
  H115     1.0000 0.85650  0.89380  0.87790  Biso   1.000  H
  H116     1.0000 0.85920  0.83150  0.88530  Biso   1.000  H
  C64      1.0000 0.80579  0.92260  0.19840  Biso   1.000  C
  C65      1.0000 0.77370  0.96300  0.26070  Biso   1.000  C
  H117     1.0000 0.75080  0.94440  0.31720  Biso   1.000  H
  C66      1.0000 0.80680  0.00210  0.32740  Biso   1.000  C
  H118     1.0000 0.82620  0.98390  0.38810  Biso   1.000  H
  H119     1.0000 0.78400  0.02850  0.36240  Biso   1.000  H
  H120     1.0000 0.83140  0.01920  0.27480  Biso   1.000  H
  C67      1.0000 0.73940  0.99070  0.17710  Biso   1.000  C
  H121     1.0000 0.72150  0.01950  0.21630  Biso   1.000  H
  H122     1.0000 0.71350  0.96630  0.14620  Biso   1.000  H
  H123     1.0000 0.76060  0.00460  0.11390  Biso   1.000  H
  C68      1.0000 0.93578  0.68849  0.30490  Biso   1.000  C
  C69      1.0000 0.98090  0.72050  0.25060  Biso   1.000  C
  H124     1.0000 0.96720  0.73630  0.17770  Biso   1.000  H
  C70      1.0000 0.02590  0.68560  0.21820  Biso   1.000  C
  H125     1.0000 0.04870  0.70380  0.16340  Biso   1.000  H
  H126     1.0000 0.01240  0.65360  0.18260  Biso   1.000  H
  H127     1.0000 0.04590  0.67660  0.28760  Biso   1.000  H
  C71      1.0000 0.99470  0.76460  0.32980  Biso   1.000  C
  H128     1.0000 0.01180  0.79250  0.28570  Biso   1.000  H
  H129     1.0000 0.01860  0.75200  0.38980  Biso   1.000  H
  H130     1.0000 0.96290  0.77830  0.36580  Biso   1.000  H
  C72      1.0000 0.89044  0.63907  0.40950  Biso   1.000  C
  C73      1.0000 0.87549  0.60339  0.50670  Biso   1.000  C
  H131     1.0000 0.90050  0.57340  0.50710  Biso   1.000  H
  C74      1.0000 0.82010  0.58130  0.50030  Biso   1.000  C
  H132     1.0000 0.81540  0.56290  0.42680  Biso   1.000  H
  H133     1.0000 0.79470  0.60990  0.50570  Biso   1.000  H
  H134     1.0000 0.81460  0.55680  0.56420  Biso   1.000  H
  C75      1.0000 0.88190  0.63300  0.62010  Biso   1.000  C
  H135     1.0000 0.91410  0.65380  0.61740  Biso   1.000  H
  H136     1.0000 0.88400  0.60810  0.68410  Biso   1.000  H
  H137     1.0000 0.85190  0.65620  0.63160  Biso   1.000  H
  C76      1.0000 0.97920  0.04850  0.23640  Biso   1.000  C
  H138     1.0000 0.97990  0.04690  0.32090  Biso   1.000  H
  H139     1.0000 0.94310  0.05330  0.21000  Biso   1.000  H
  H140     1.0000 0.00060  0.07790  0.21000  Biso   1.000  H
  C77      1.0000 0.94600  0.49930  0.28390  Biso   1.000  C
  H141     1.0000 0.94970  0.48650  0.20460  Biso   1.000  H
  H142     1.0000 0.93160  0.53470  0.28290  Biso   1.000  H
  H143     1.0000 0.92250  0.47620  0.32690  Biso   1.000  H
  C78      1.0000 0.97324  0.00170  0.87770  Biso   1.000  C
  C79      1.0000 0.93570  0.00760  0.77620  Biso   1.000  C
  H144     1.0000 0.90320  0.00930  0.82380  Biso   1.000  H
  C80      1.0000 0.91080  0.98190  0.67420  Biso   1.000  C
  H145     1.0000 0.89890  0.00870  0.61980  Biso   1.000  H
  H146     1.0000 0.88080  0.96100  0.69980  Biso   1.000  H
  H147     1.0000 0.93630  0.95910  0.63620  Biso   1.000  H
  C81      1.0000 0.93710  0.06570  0.74610  Biso   1.000  C
  H148     1.0000 0.91380  0.07250  0.68080  Biso   1.000  H
  H149     1.0000 0.97290  0.07580  0.72550  Biso   1.000  H
  H150     1.0000 0.92560  0.08620  0.81290  Biso   1.000  H
  C82      1.0000 0.00160  0.56530  0.74790  Biso   1.000  C
  H151     1.0000 0.98970  0.59960  0.71590  Biso   1.000  H
  C83      1.0000 0.05510  0.57340  0.79800  Biso   1.000  C
  H152     1.0000 0.07910  0.58480  0.73710  Biso   1.000  H
  H153     1.0000 0.06770  0.54050  0.83110  Biso   1.000  H
  H154     1.0000 0.05350  0.60000  0.85850  Biso   1.000  H
  C84      1.0000 0.96130  0.54760  0.83290  Biso   1.000  C
  H155     1.0000 0.92730  0.54510  0.79460  Biso   1.000  H
  H156     1.0000 0.95920  0.57270  0.89640  Biso   1.000  H
  H157     1.0000 0.97120  0.51330  0.86340  Biso   1.000  H
  C85      1.0000 0.98270  0.94990  0.23610  Biso   1.000  C
  H158     1.0000 0.98320  0.95140  0.32060  Biso   1.000  H
  H159     1.0000 0.99380  0.07780  0.20960  Biso   1.000  H
  H160     1.0000 0.03800  0.00130  0.20970  Biso   1.000  H
  H161     1.0000 0.00050  0.46100  0.34270  Biso   1.000  H
  H162     1.0000 0.94710  0.94260  0.20950  Biso   1.000  H
  Ag13     1.0000 0.23220  0.67241  0.71940  Biso   1.000  Ag
  Ag14     1.0000 0.16178  0.78348  0.77628  Biso   1.000  Ag
  Ag15     1.0000 0.34556  0.73690  0.78541  Biso   1.000  Ag
  Ag16     1.0000 0.27647  0.84835  0.72936  Biso   1.000  Ag
  Ag17     1.0000 0.50840  0.87101  0.50549  Biso   1.000  Ag
  Ag18     1.0000 0.36980  0.50151  0.96965  Biso   1.000  Ag
  N30      1.0000 0.15541  0.68228  0.64480  Biso   1.000  N
  N31      1.0000 0.12106  0.72075  0.68380  Biso   1.000  N
  N32      1.0000 0.07566  0.66952  0.57180  Biso   1.000  N
  N33      1.0000 0.21263  0.89072  0.81410  Biso   1.000  N
  N34      1.0000 0.17459  0.85840  0.86060  Biso   1.000  N
  N35      1.0000 0.16860  0.93572  0.94790  Biso   1.000  N
  N36      1.0000 0.33736  0.65503  0.83560  Biso   1.000  N
  N37      1.0000 0.30070  0.62841  0.77310  Biso   1.000  N
  N38      1.0000 0.34346  0.57095  0.87970  Biso   1.000  N
  N39      1.0000 0.38689  0.80751  0.73530  Biso   1.000  N
  N40      1.0000 0.35751  0.84070  0.66550  Biso   1.000  N
  N41      1.0000 0.44011  0.84363  0.60580  Biso   1.000  N
  N42      1.0000 0.45635  0.49780  0.01090  Biso   1.000  N
  N43      1.0000 0.50020  0.95620  0.46400  Biso   1.000  N
  C86      1.0000 0.12800  0.65325  0.57720  Biso   1.000  C
  C87      1.0000 0.15290  0.60900  0.51010  Biso   1.000  C
  H163     1.0000 0.19130  0.61280  0.52500  Biso   1.000  H
  C88      1.0000 0.13690  0.55560  0.57600  Biso   1.000  C
  H164     1.0000 0.14970  0.55680  0.65570  Biso   1.000  H
  H165     1.0000 0.15260  0.52570  0.53620  Biso   1.000  H
  H166     1.0000 0.09880  0.55200  0.57620  Biso   1.000  H
  C89      1.0000 0.14790  0.61490  0.38600  Biso   1.000  C
  H167     1.0000 0.16000  0.64970  0.36330  Biso   1.000  H
  H168     1.0000 0.11110  0.61070  0.36390  Biso   1.000  H
  H169     1.0000 0.16900  0.58830  0.34710  Biso   1.000  H
  C90      1.0000 0.07547  0.71131  0.63980  Biso   1.000  C
  C91      1.0000 0.02600  0.74240  0.66190  Biso   1.000  C
  H170     1.0000 0.00010  0.73200  0.60150  Biso   1.000  H
  C92      1.0000 0.00200  0.72920  0.77830  Biso   1.000  C
  H171     1.0000 0.96620  0.74290  0.78170  Biso   1.000  H
  H172     1.0000 0.02290  0.74510  0.83980  Biso   1.000  H
  H173     1.0000 0.00130  0.69130  0.78830  Biso   1.000  H
  C93      1.0000 0.03490  0.80150  0.64920  Biso   1.000  C
  H174     1.0000 0.03650  0.81060  0.56720  Biso   1.000  H
  H175     1.0000 0.06790  0.81120  0.68660  Biso   1.000  H
  H176     1.0000 0.00600  0.82040  0.68570  Biso   1.000  H
  C94      1.0000 0.20730  0.93530  0.86670  Biso   1.000  C
  C95      1.0000 0.23840  0.98353  0.84070  Biso   1.000  C
  H177     1.0000 0.22830  0.01090  0.89790  Biso   1.000  H
  C96      1.0000 0.22540  0.00460  0.71810  Biso   1.000  C
  H178     1.0000 0.18930  0.01740  0.71660  Biso   1.000  H
  H179     1.0000 0.22940  0.97640  0.66160  Biso   1.000  H
  H180     1.0000 0.24930  0.03320  0.69890  Biso   1.000  H
  C97      1.0000 0.29840  0.97490  0.84990  Biso   1.000  C
  H181     1.0000 0.30730  0.96440  0.92880  Biso   1.000  H
  H182     1.0000 0.31660  0.00750  0.83100  Biso   1.000  H
  H183     1.0000 0.30910  0.94750  0.79590  Biso   1.000  H
  C98      1.0000 0.15035  0.88535  0.94370  Biso   1.000  C
  C99      1.0000 0.10790  0.86689  0.02130  Biso   1.000  C
  H184     1.0000 0.07690  0.89040  0.01440  Biso   1.000  H
  C100     1.0000 0.09210  0.81310  0.00560  Biso   1.000  C
  H185     1.0000 0.06670  0.81100  0.94250  Biso   1.000  H
  H186     1.0000 0.07620  0.80020  0.07680  Biso   1.000  H
  H187     1.0000 0.12280  0.79190  0.98670  Biso   1.000  H
  C101     1.0000 0.13070  0.86950  0.14860  Biso   1.000  C
  H188     1.0000 0.13900  0.90580  0.16800  Biso   1.000  H
  H189     1.0000 0.16240  0.84820  0.15350  Biso   1.000  H
  H190     1.0000 0.10460  0.85610  0.20290  Biso   1.000  H
  C102     1.0000 0.36183  0.62010  0.89930  Biso   1.000  C
  C103     1.0000 0.40280  0.63230  0.98720  Biso   1.000  C
  H191     1.0000 0.42340  0.59910  0.99090  Biso   1.000  H
  C104     1.0000 0.44250  0.67110  0.95250  Biso   1.000  C
  H192     1.0000 0.45720  0.66130  0.87750  Biso   1.000  H
  H193     1.0000 0.47040  0.67210  0.01030  Biso   1.000  H
  H194     1.0000 0.42610  0.70560  0.94670  Biso   1.000  H
  C105     1.0000 0.37950  0.63620  0.10820  Biso   1.000  C
  H195     1.0000 0.40770  0.63640  0.16540  Biso   1.000  H
  H196     1.0000 0.35650  0.60620  0.12210  Biso   1.000  H
  H197     1.0000 0.35920  0.66850  0.11470  Biso   1.000  H
  C106     1.0000 0.30579  0.57740  0.80160  Biso   1.000  C
  C107     1.0000 0.27370  0.53700  0.73930  Biso   1.000  C
  H198     1.0000 0.25080  0.55560  0.68280  Biso   1.000  H
  C108     1.0000 0.30680  0.49790  0.67260  Biso   1.000  C
  H199     1.0000 0.32620  0.51610  0.61190  Biso   1.000  H
  H200     1.0000 0.28400  0.47150  0.63760  Biso   1.000  H
  H201     1.0000 0.33140  0.48080  0.72520  Biso   1.000  H
  C109     1.0000 0.23940  0.50930  0.82290  Biso   1.000  C
  H202     1.0000 0.22150  0.48050  0.78370  Biso   1.000  H
  H203     1.0000 0.21350  0.53370  0.85380  Biso   1.000  H
  H204     1.0000 0.26060  0.49540  0.88610  Biso   1.000  H
  C110     1.0000 0.43578  0.81151  0.69510  Biso   1.000  C
  C111     1.0000 0.48090  0.77950  0.74940  Biso   1.000  C
  H205     1.0000 0.46720  0.76370  0.82230  Biso   1.000  H
  C112     1.0000 0.52590  0.81440  0.78180  Biso   1.000  C
  H206     1.0000 0.54870  0.79620  0.83660  Biso   1.000  H
  H207     1.0000 0.51240  0.84640  0.81740  Biso   1.000  H
  H208     1.0000 0.54590  0.82340  0.71240  Biso   1.000  H
  C113     1.0000 0.49470  0.73540  0.67020  Biso   1.000  C
  H209     1.0000 0.51180  0.70750  0.71430  Biso   1.000  H
  H210     1.0000 0.51860  0.74800  0.61020  Biso   1.000  H
  H211     1.0000 0.46290  0.72170  0.63420  Biso   1.000  H
  C114     1.0000 0.39044  0.86093  0.59050  Biso   1.000  C
  C115     1.0000 0.37549  0.89661  0.49330  Biso   1.000  C
  H212     1.0000 0.40050  0.92660  0.49290  Biso   1.000  H
  C116     1.0000 0.32010  0.91870  0.49970  Biso   1.000  C
  H213     1.0000 0.31540  0.93710  0.57320  Biso   1.000  H
  H214     1.0000 0.29470  0.89010  0.49430  Biso   1.000  H
  H215     1.0000 0.31460  0.94320  0.43580  Biso   1.000  H
  C117     1.0000 0.38190  0.86700  0.37990  Biso   1.000  C
  H216     1.0000 0.41410  0.84620  0.38260  Biso   1.000  H
  H217     1.0000 0.38400  0.89190  0.31590  Biso   1.000  H
  H218     1.0000 0.35190  0.84380  0.36840  Biso   1.000  H
  C118     1.0000 0.47920  0.45150  0.76360  Biso   1.000  C
  H219     1.0000 0.47990  0.45310  0.67910  Biso   1.000  H
  H220     1.0000 0.44310  0.44670  0.79000  Biso   1.000  H
  H221     1.0000 0.50060  0.42210  0.79000  Biso   1.000  H
  C119     1.0000 0.44600  0.00070  0.71610  Biso   1.000  C
  H222     1.0000 0.44970  0.01350  0.79540  Biso   1.000  H
  H223     1.0000 0.43160  0.96530  0.71710  Biso   1.000  H
  H224     1.0000 0.42250  0.02380  0.67310  Biso   1.000  H
  C120     1.0000 0.47324  0.49830  0.12230  Biso   1.000  C
  C121     1.0000 0.43570  0.49240  0.22380  Biso   1.000  C
  H225     1.0000 0.40320  0.49070  0.17620  Biso   1.000  H
  C122     1.0000 0.41080  0.51810  0.32580  Biso   1.000  C
  H226     1.0000 0.39890  0.49130  0.38020  Biso   1.000  H
  H227     1.0000 0.38080  0.53900  0.30020  Biso   1.000  H
  H228     1.0000 0.43630  0.54090  0.36380  Biso   1.000  H
  C123     1.0000 0.43710  0.43430  0.25390  Biso   1.000  C
  H229     1.0000 0.41380  0.42750  0.31920  Biso   1.000  H
  H230     1.0000 0.47290  0.42420  0.27450  Biso   1.000  H
  H231     1.0000 0.42560  0.41380  0.18710  Biso   1.000  H
  C124     1.0000 0.50160  0.93470  0.25210  Biso   1.000  C
  H232     1.0000 0.48970  0.90040  0.28410  Biso   1.000  H
  C125     1.0000 0.55510  0.92660  0.20200  Biso   1.000  C
  H233     1.0000 0.57910  0.91520  0.26290  Biso   1.000  H
  H234     1.0000 0.56770  0.95950  0.16890  Biso   1.000  H
  H235     1.0000 0.55350  0.90000  0.14150  Biso   1.000  H
  C126     1.0000 0.46130  0.95240  0.16710  Biso   1.000  C
  H236     1.0000 0.42730  0.95490  0.20540  Biso   1.000  H
  H237     1.0000 0.45920  0.92730  0.10360  Biso   1.000  H
  H238     1.0000 0.47120  0.98670  0.13660  Biso   1.000  H
  C127     1.0000 0.50000  0.97424  0.34960  Biso   1.000  C
  C128     1.0000 0.48270  0.55010  0.76390  Biso   1.000  C
  H239     1.0000 0.48320  0.54860  0.67940  Biso   1.000  H
  H240     1.0000 0.49380  0.42220  0.79040  Biso   1.000  H
  H241     1.0000 0.53800  0.49870  0.79030  Biso   1.000  H
  H242     1.0000 0.50050  0.03900  0.65730  Biso   1.000  H
  H243     1.0000 0.44710  0.55740  0.79050  Biso   1.000  H
  N44      1.0000 0.50000  0.02576  0.34960  Biso   1.000  N
  Ag19     1.0000 0.76780  0.32758  0.71940  Biso   1.000  Ag
  Ag20     1.0000 0.83822  0.21652  0.77628  Biso   1.000  Ag
  Ag21     1.0000 0.65444  0.26310  0.78541  Biso   1.000  Ag
  Ag22     1.0000 0.72353  0.15165  0.72936  Biso   1.000  Ag
  Ag23     1.0000 0.49160  0.12899  0.50549  Biso   1.000  Ag
  Ag24     1.0000 0.63020  0.49849  0.96965  Biso   1.000  Ag
  N45      1.0000 0.84459  0.31772  0.64480  Biso   1.000  N
  N46      1.0000 0.87894  0.27925  0.68380  Biso   1.000  N
  N47      1.0000 0.92434  0.33048  0.57180  Biso   1.000  N
  N48      1.0000 0.78737  0.10928  0.81410  Biso   1.000  N
  N49      1.0000 0.82541  0.14160  0.86060  Biso   1.000  N
  N50      1.0000 0.83140  0.06428  0.94790  Biso   1.000  N
  N51      1.0000 0.66264  0.34497  0.83560  Biso   1.000  N
  N52      1.0000 0.69930  0.37159  0.77310  Biso   1.000  N
  N53      1.0000 0.65654  0.42905  0.87970  Biso   1.000  N
  N54      1.0000 0.61311  0.19249  0.73530  Biso   1.000  N
  N55      1.0000 0.64249  0.15930  0.66550  Biso   1.000  N
  N56      1.0000 0.55989  0.15637  0.60580  Biso   1.000  N
  N57      1.0000 0.54365  0.50220  0.01090  Biso   1.000  N
  N58      1.0000 0.49980  0.04380  0.46400  Biso   1.000  N
  C129     1.0000 0.87200  0.34675  0.57720  Biso   1.000  C
  C130     1.0000 0.84710  0.39100  0.51010  Biso   1.000  C
  H244     1.0000 0.80870  0.38720  0.52500  Biso   1.000  H
  C131     1.0000 0.86310  0.44440  0.57600  Biso   1.000  C
  H245     1.0000 0.85030  0.44320  0.65570  Biso   1.000  H
  H246     1.0000 0.84740  0.47430  0.53620  Biso   1.000  H
  H247     1.0000 0.90120  0.44800  0.57620  Biso   1.000  H
  C132     1.0000 0.85210  0.38510  0.38600  Biso   1.000  C
  H248     1.0000 0.84000  0.35030  0.36330  Biso   1.000  H
  H249     1.0000 0.88890  0.38930  0.36390  Biso   1.000  H
  H250     1.0000 0.83100  0.41170  0.34710  Biso   1.000  H
  C133     1.0000 0.92453  0.28869  0.63980  Biso   1.000  C
  C134     1.0000 0.97400  0.25760  0.66190  Biso   1.000  C
  H251     1.0000 0.99990  0.26800  0.60150  Biso   1.000  H
  C135     1.0000 0.99800  0.27080  0.77830  Biso   1.000  C
  H252     1.0000 0.03380  0.25710  0.78170  Biso   1.000  H
  H253     1.0000 0.97710  0.25490  0.83980  Biso   1.000  H
  H254     1.0000 0.99870  0.30870  0.78830  Biso   1.000  H
  C136     1.0000 0.96510  0.19850  0.64920  Biso   1.000  C
  H255     1.0000 0.96350  0.18940  0.56720  Biso   1.000  H
  H256     1.0000 0.93210  0.18880  0.68660  Biso   1.000  H
  H257     1.0000 0.99400  0.17960  0.68570  Biso   1.000  H
  C137     1.0000 0.79270  0.06470  0.86670  Biso   1.000  C
  C138     1.0000 0.76160  0.01647  0.84070  Biso   1.000  C
  H258     1.0000 0.77170  0.98910  0.89790  Biso   1.000  H
  C139     1.0000 0.77460  0.99540  0.71810  Biso   1.000  C
  H259     1.0000 0.81070  0.98260  0.71660  Biso   1.000  H
  H260     1.0000 0.77060  0.02360  0.66160  Biso   1.000  H
  H261     1.0000 0.75070  0.96680  0.69890  Biso   1.000  H
  C140     1.0000 0.70160  0.02510  0.84990  Biso   1.000  C
  H262     1.0000 0.69270  0.03560  0.92880  Biso   1.000  H
  H263     1.0000 0.68340  0.99250  0.83100  Biso   1.000  H
  H264     1.0000 0.69090  0.05250  0.79590  Biso   1.000  H
  C141     1.0000 0.84965  0.11465  0.94370  Biso   1.000  C
  C142     1.0000 0.89210  0.13311  0.02130  Biso   1.000  C
  H265     1.0000 0.92310  0.10960  0.01440  Biso   1.000  H
  C143     1.0000 0.90790  0.18690  0.00560  Biso   1.000  C
  H266     1.0000 0.93330  0.18900  0.94250  Biso   1.000  H
  H267     1.0000 0.92380  0.19980  0.07680  Biso   1.000  H
  H268     1.0000 0.87720  0.20810  0.98670  Biso   1.000  H
  C144     1.0000 0.86930  0.13050  0.14860  Biso   1.000  C
  H269     1.0000 0.86100  0.09420  0.16800  Biso   1.000  H
  H270     1.0000 0.83760  0.15180  0.15350  Biso   1.000  H
  H271     1.0000 0.89540  0.14390  0.20290  Biso   1.000  H
  C145     1.0000 0.63817  0.37990  0.89930  Biso   1.000  C
  C146     1.0000 0.59720  0.36770  0.98720  Biso   1.000  C
  H272     1.0000 0.57660  0.40090  0.99090  Biso   1.000  H
  C147     1.0000 0.55750  0.32890  0.95250  Biso   1.000  C
  H273     1.0000 0.54280  0.33870  0.87750  Biso   1.000  H
  H274     1.0000 0.52960  0.32790  0.01030  Biso   1.000  H
  H275     1.0000 0.57390  0.29440  0.94670  Biso   1.000  H
  C148     1.0000 0.62050  0.36380  0.10820  Biso   1.000  C
  H276     1.0000 0.59230  0.36360  0.16540  Biso   1.000  H
  H277     1.0000 0.64350  0.39380  0.12210  Biso   1.000  H
  H278     1.0000 0.64080  0.33150  0.11470  Biso   1.000  H
  C149     1.0000 0.69421  0.42260  0.80160  Biso   1.000  C
  C150     1.0000 0.72630  0.46300  0.73930  Biso   1.000  C
  H279     1.0000 0.74920  0.44440  0.68280  Biso   1.000  H
  C151     1.0000 0.69320  0.50210  0.67260  Biso   1.000  C
  H280     1.0000 0.67380  0.48390  0.61190  Biso   1.000  H
  H281     1.0000 0.71600  0.52850  0.63760  Biso   1.000  H
  H282     1.0000 0.66860  0.51920  0.72520  Biso   1.000  H
  C152     1.0000 0.76060  0.49070  0.82290  Biso   1.000  C
  H283     1.0000 0.77850  0.51950  0.78370  Biso   1.000  H
  H284     1.0000 0.78650  0.46630  0.85380  Biso   1.000  H
  H285     1.0000 0.73940  0.50460  0.88610  Biso   1.000  H
  C153     1.0000 0.56422  0.18849  0.69510  Biso   1.000  C
  C154     1.0000 0.51910  0.22050  0.74940  Biso   1.000  C
  H286     1.0000 0.53280  0.23630  0.82230  Biso   1.000  H
  C155     1.0000 0.47410  0.18560  0.78180  Biso   1.000  C
  H287     1.0000 0.45130  0.20380  0.83660  Biso   1.000  H
  H288     1.0000 0.48760  0.15360  0.81740  Biso   1.000  H
  H289     1.0000 0.45410  0.17660  0.71240  Biso   1.000  H
  C156     1.0000 0.50530  0.26460  0.67020  Biso   1.000  C
  H290     1.0000 0.48820  0.29250  0.71430  Biso   1.000  H
  H291     1.0000 0.48140  0.25200  0.61020  Biso   1.000  H
  H292     1.0000 0.53710  0.27830  0.63420  Biso   1.000  H
  C157     1.0000 0.60956  0.13907  0.59050  Biso   1.000  C
  C158     1.0000 0.62451  0.10339  0.49330  Biso   1.000  C
  H293     1.0000 0.59950  0.07340  0.49290  Biso   1.000  H
  C159     1.0000 0.67990  0.08130  0.49970  Biso   1.000  C
  H294     1.0000 0.68460  0.06290  0.57320  Biso   1.000  H
  H295     1.0000 0.70530  0.10990  0.49430  Biso   1.000  H
  H296     1.0000 0.68540  0.05680  0.43580  Biso   1.000  H
  C160     1.0000 0.61810  0.13300  0.37990  Biso   1.000  C
  H297     1.0000 0.58590  0.15380  0.38260  Biso   1.000  H
  H298     1.0000 0.61600  0.10810  0.31590  Biso   1.000  H
  H299     1.0000 0.64810  0.15620  0.36840  Biso   1.000  H
  C161     1.0000 0.52080  0.54850  0.76360  Biso   1.000  C
  H300     1.0000 0.52010  0.54690  0.67910  Biso   1.000  H
  H301     1.0000 0.55690  0.55330  0.79000  Biso   1.000  H
  H302     1.0000 0.49940  0.57790  0.79000  Biso   1.000  H
  C162     1.0000 0.55400  0.99930  0.71610  Biso   1.000  C
  H303     1.0000 0.55030  0.98650  0.79540  Biso   1.000  H
  H304     1.0000 0.56840  0.03470  0.71710  Biso   1.000  H
  H305     1.0000 0.57750  0.97620  0.67310  Biso   1.000  H
  C163     1.0000 0.52676  0.50170  0.12230  Biso   1.000  C
  C164     1.0000 0.56430  0.50760  0.22380  Biso   1.000  C
  H306     1.0000 0.59680  0.50930  0.17620  Biso   1.000  H
  C165     1.0000 0.58920  0.48190  0.32580  Biso   1.000  C
  H307     1.0000 0.60110  0.50870  0.38020  Biso   1.000  H
  H308     1.0000 0.61920  0.46100  0.30020  Biso   1.000  H
  H309     1.0000 0.56370  0.45910  0.36380  Biso   1.000  H
  C166     1.0000 0.56290  0.56570  0.25390  Biso   1.000  C
  H310     1.0000 0.58620  0.57250  0.31920  Biso   1.000  H
  H311     1.0000 0.52710  0.57580  0.27450  Biso   1.000  H
  H312     1.0000 0.57440  0.58620  0.18710  Biso   1.000  H
  C167     1.0000 0.49840  0.06530  0.25210  Biso   1.000  C
  H313     1.0000 0.51030  0.09960  0.28410  Biso   1.000  H
  C168     1.0000 0.44490  0.07340  0.20200  Biso   1.000  C
  H314     1.0000 0.42090  0.08480  0.26290  Biso   1.000  H
  H315     1.0000 0.43230  0.04050  0.16890  Biso   1.000  H
  H316     1.0000 0.44650  0.10000  0.14150  Biso   1.000  H
  C169     1.0000 0.53870  0.04760  0.16710  Biso   1.000  C
  H317     1.0000 0.57270  0.04510  0.20540  Biso   1.000  H
  H318     1.0000 0.54080  0.07270  0.10360  Biso   1.000  H
  H319     1.0000 0.52880  0.01330  0.13660  Biso   1.000  H
  C170     1.0000 0.51730  0.44990  0.76390  Biso   1.000  C
  H320     1.0000 0.51680  0.45140  0.67940  Biso   1.000  H
  H321     1.0000 0.50620  0.57780  0.79040  Biso   1.000  H
  H322     1.0000 0.46200  0.50130  0.79030  Biso   1.000  H
  H323     1.0000 0.49950  0.96100  0.65730  Biso   1.000  H
  H324     1.0000 0.55290  0.44260  0.79050  Biso   1.000  H
  C171     1.0000 0.00000  0.00000  0.04910  Biso   1.000  C
  C172     1.0000 0.00000  0.00000  0.18930  Biso   1.000  C
  C173     1.0000 0.50000  0.50000  0.95090  Biso   1.000  C
  C174     1.0000 0.50000  0.50000  0.81070  Biso   1.000  C
  C175     1.0000 0.00000  0.50000  0.47290  Biso   1.000  C
  C176     1.0000 0.00000  0.50000  0.34270  Biso   1.000  C
  C177     1.0000 0.50000  0.00000  0.52710  Biso   1.000  C
  C178     1.0000 0.50000  0.00000  0.65730  Biso   1.000  C
