data_image0
_cell_length_a       12.358
_cell_length_b       12.358
_cell_length_c       22.9288
_cell_angle_alpha    90
_cell_angle_beta     90
_cell_angle_gamma    90

_symmetry_space_group_name_H-M    "P 1"
_symmetry_int_tables_number       1

loop_
  _symmetry_equiv_pos_as_xyz
  'x, y, z'

loop_
  _atom_site_label
  _atom_site_occupancy
  _atom_site_fract_x
  _atom_site_fract_y
  _atom_site_fract_z
  _atom_site_thermal_displace_type
  _atom_site_B_iso_or_equiv
  _atom_site_type_symbol
  C1       1.0000 0.97940  0.08870  0.12450  Biso   1.000  C
  H1       1.0000 0.96480  0.15350  0.10370  Biso   1.000  H
  C2       1.0000 0.97820  0.09040  0.18730  Biso   1.000  C
  H2       1.0000 0.96190  0.15570  0.20730  Biso   1.000  H
  C3       1.0000 0.47940  0.58870  0.62450  Biso   1.000  C
  H3       1.0000 0.46480  0.65350  0.60370  Biso   1.000  H
  C4       1.0000 0.47820  0.59040  0.68730  Biso   1.000  C
  H4       1.0000 0.46190  0.65570  0.70730  Biso   1.000  H
  C5       1.0000 0.02060  0.91130  0.12450  Biso   1.000  C
  H5       1.0000 0.03520  0.84650  0.10370  Biso   1.000  H
  C6       1.0000 0.02180  0.90960  0.18730  Biso   1.000  C
  H6       1.0000 0.03810  0.84430  0.20730  Biso   1.000  H
  C7       1.0000 0.52060  0.41130  0.62450  Biso   1.000  C
  H7       1.0000 0.53520  0.34650  0.60370  Biso   1.000  H
  C8       1.0000 0.52180  0.40960  0.68730  Biso   1.000  C
  H8       1.0000 0.53810  0.34430  0.70730  Biso   1.000  H
  C9       1.0000 0.91130  0.97940  0.12450  Biso   1.000  C
  H9       1.0000 0.84650  0.96480  0.10370  Biso   1.000  H
  C10      1.0000 0.90960  0.97820  0.18730  Biso   1.000  C
  H10      1.0000 0.84430  0.96190  0.20730  Biso   1.000  H
  C11      1.0000 0.41130  0.47940  0.62450  Biso   1.000  C
  H11      1.0000 0.34650  0.46480  0.60370  Biso   1.000  H
  C12      1.0000 0.40960  0.47820  0.68730  Biso   1.000  C
  H12      1.0000 0.34430  0.46190  0.70730  Biso   1.000  H
  C13      1.0000 0.08870  0.02060  0.12450  Biso   1.000  C
  H13      1.0000 0.15350  0.03520  0.10370  Biso   1.000  H
  C14      1.0000 0.09040  0.02180  0.18730  Biso   1.000  C
  H14      1.0000 0.15570  0.03810  0.20730  Biso   1.000  H
  C15      1.0000 0.58870  0.52060  0.62450  Biso   1.000  C
  H15      1.0000 0.65350  0.53520  0.60370  Biso   1.000  H
  C16      1.0000 0.59040  0.52180  0.68730  Biso   1.000  C
  H16      1.0000 0.65570  0.53810  0.70730  Biso   1.000  H
  C17      1.0000 0.02060  0.08870  0.37550  Biso   1.000  C
  H17      1.0000 0.03520  0.15350  0.39630  Biso   1.000  H
  C18      1.0000 0.02180  0.09040  0.31270  Biso   1.000  C
  H18      1.0000 0.03810  0.15570  0.29270  Biso   1.000  H
  C19      1.0000 0.52060  0.58870  0.87550  Biso   1.000  C
  H19      1.0000 0.53520  0.65350  0.89630  Biso   1.000  H
  C20      1.0000 0.52180  0.59040  0.81270  Biso   1.000  C
  H20      1.0000 0.53810  0.65570  0.79270  Biso   1.000  H
  C21      1.0000 0.97940  0.91130  0.37550  Biso   1.000  C
  H21      1.0000 0.96480  0.84650  0.39630  Biso   1.000  H
  C22      1.0000 0.97820  0.90960  0.31270  Biso   1.000  C
  H22      1.0000 0.96190  0.84430  0.29270  Biso   1.000  H
  C23      1.0000 0.47940  0.41130  0.87550  Biso   1.000  C
  H23      1.0000 0.46480  0.34650  0.89630  Biso   1.000  H
  C24      1.0000 0.47820  0.40960  0.81270  Biso   1.000  C
  H24      1.0000 0.46190  0.34430  0.79270  Biso   1.000  H
  C25      1.0000 0.08870  0.97940  0.37550  Biso   1.000  C
  H25      1.0000 0.15350  0.96480  0.39630  Biso   1.000  H
  C26      1.0000 0.09040  0.97820  0.31270  Biso   1.000  C
  H26      1.0000 0.15570  0.96190  0.29270  Biso   1.000  H
  C27      1.0000 0.58870  0.47940  0.87550  Biso   1.000  C
  H27      1.0000 0.65350  0.46480  0.89630  Biso   1.000  H
  C28      1.0000 0.59040  0.47820  0.81270  Biso   1.000  C
  H28      1.0000 0.65570  0.46190  0.79270  Biso   1.000  H
  C29      1.0000 0.91130  0.02060  0.37550  Biso   1.000  C
  H29      1.0000 0.84650  0.03520  0.39630  Biso   1.000  H
  C30      1.0000 0.90960  0.02180  0.31270  Biso   1.000  C
  H30      1.0000 0.84430  0.03810  0.29270  Biso   1.000  H
  C31      1.0000 0.41130  0.52060  0.87550  Biso   1.000  C
  H31      1.0000 0.34650  0.53520  0.89630  Biso   1.000  H
  C32      1.0000 0.40960  0.52180  0.81270  Biso   1.000  C
  H32      1.0000 0.34430  0.53810  0.79270  Biso   1.000  H
  C33      1.0000 0.02060  0.91130  0.87550  Biso   1.000  C
  H33      1.0000 0.03520  0.84650  0.89630  Biso   1.000  H
  C34      1.0000 0.02180  0.90960  0.81270  Biso   1.000  C
  H34      1.0000 0.03810  0.84430  0.79270  Biso   1.000  H
  C35      1.0000 0.52060  0.41130  0.37550  Biso   1.000  C
  H35      1.0000 0.53520  0.34650  0.39630  Biso   1.000  H
  C36      1.0000 0.52180  0.40960  0.31270  Biso   1.000  C
  H36      1.0000 0.53810  0.34430  0.29270  Biso   1.000  H
  C37      1.0000 0.97940  0.08870  0.87550  Biso   1.000  C
  H37      1.0000 0.96480  0.15350  0.89630  Biso   1.000  H
  C38      1.0000 0.97820  0.09040  0.81270  Biso   1.000  C
  H38      1.0000 0.96190  0.15570  0.79270  Biso   1.000  H
  C39      1.0000 0.47940  0.58870  0.37550  Biso   1.000  C
  H39      1.0000 0.46480  0.65350  0.39630  Biso   1.000  H
  C40      1.0000 0.47820  0.59040  0.31270  Biso   1.000  C
  H40      1.0000 0.46190  0.65570  0.29270  Biso   1.000  H
  C41      1.0000 0.08870  0.02060  0.87550  Biso   1.000  C
  H41      1.0000 0.15350  0.03520  0.89630  Biso   1.000  H
  C42      1.0000 0.09040  0.02180  0.81270  Biso   1.000  C
  H42      1.0000 0.15570  0.03810  0.79270  Biso   1.000  H
  C43      1.0000 0.58870  0.52060  0.37550  Biso   1.000  C
  H43      1.0000 0.65350  0.53520  0.39630  Biso   1.000  H
  C44      1.0000 0.59040  0.52180  0.31270  Biso   1.000  C
  H44      1.0000 0.65570  0.53810  0.29270  Biso   1.000  H
  C45      1.0000 0.91130  0.97940  0.87550  Biso   1.000  C
  H45      1.0000 0.84650  0.96480  0.89630  Biso   1.000  H
  C46      1.0000 0.90960  0.97820  0.81270  Biso   1.000  C
  H46      1.0000 0.84430  0.96190  0.79270  Biso   1.000  H
  C47      1.0000 0.41130  0.47940  0.37550  Biso   1.000  C
  H47      1.0000 0.34650  0.46480  0.39630  Biso   1.000  H
  C48      1.0000 0.40960  0.47820  0.31270  Biso   1.000  C
  H48      1.0000 0.34430  0.46190  0.29270  Biso   1.000  H
  C49      1.0000 0.97940  0.91130  0.62450  Biso   1.000  C
  H49      1.0000 0.96480  0.84650  0.60370  Biso   1.000  H
  C50      1.0000 0.97820  0.90960  0.68730  Biso   1.000  C
  H50      1.0000 0.96190  0.84430  0.70730  Biso   1.000  H
  C51      1.0000 0.47940  0.41130  0.12450  Biso   1.000  C
  H51      1.0000 0.46480  0.34650  0.10370  Biso   1.000  H
  C52      1.0000 0.47820  0.40960  0.18730  Biso   1.000  C
  H52      1.0000 0.46190  0.34430  0.20730  Biso   1.000  H
  C53      1.0000 0.02060  0.08870  0.62450  Biso   1.000  C
  H53      1.0000 0.03520  0.15350  0.60370  Biso   1.000  H
  C54      1.0000 0.02180  0.09040  0.68730  Biso   1.000  C
  H54      1.0000 0.03810  0.15570  0.70730  Biso   1.000  H
  C55      1.0000 0.52060  0.58870  0.12450  Biso   1.000  C
  H55      1.0000 0.53520  0.65350  0.10370  Biso   1.000  H
  C56      1.0000 0.52180  0.59040  0.18730  Biso   1.000  C
  H56      1.0000 0.53810  0.65570  0.20730  Biso   1.000  H
  C57      1.0000 0.91130  0.02060  0.62450  Biso   1.000  C
  H57      1.0000 0.84650  0.03520  0.60370  Biso   1.000  H
  C58      1.0000 0.90960  0.02180  0.68730  Biso   1.000  C
  H58      1.0000 0.84430  0.03810  0.70730  Biso   1.000  H
  C59      1.0000 0.41130  0.52060  0.12450  Biso   1.000  C
  H59      1.0000 0.34650  0.53520  0.10370  Biso   1.000  H
  C60      1.0000 0.40960  0.52180  0.18730  Biso   1.000  C
  H60      1.0000 0.34430  0.53810  0.20730  Biso   1.000  H
  C61      1.0000 0.08870  0.97940  0.62450  Biso   1.000  C
  H61      1.0000 0.15350  0.96480  0.60370  Biso   1.000  H
  C62      1.0000 0.09040  0.97820  0.68730  Biso   1.000  C
  H62      1.0000 0.15570  0.96190  0.70730  Biso   1.000  H
  C63      1.0000 0.58870  0.47940  0.12450  Biso   1.000  C
  H63      1.0000 0.65350  0.46480  0.10370  Biso   1.000  H
  C64      1.0000 0.59040  0.47820  0.18730  Biso   1.000  C
  H64      1.0000 0.65570  0.46190  0.20730  Biso   1.000  H
  Fe1      1.0000 0.00000  0.00000  0.00000  Biso   1.000  Fe
  Fe2      1.0000 0.50000  0.50000  0.50000  Biso   1.000  Fe
  Fe3      1.0000 0.00000  0.00000  0.50000  Biso   1.000  Fe
  Fe4      1.0000 0.50000  0.50000  0.00000  Biso   1.000  Fe
  N1       1.0000 0.10078  0.14069  0.00000  Biso   1.000  N
  C65      1.0000 0.13498  0.22685  0.00000  Biso   1.000  C
  C66      1.0000 0.10800  0.52870  0.00000  Biso   1.000  C
  H65      1.0000 0.18210  0.54930  0.00000  Biso   1.000  H
  N2       1.0000 0.60078  0.64069  0.50000  Biso   1.000  N
  C67      1.0000 0.63498  0.72685  0.50000  Biso   1.000  C
  C68      1.0000 0.60800  0.02870  0.50000  Biso   1.000  C
  H66      1.0000 0.68210  0.04930  0.50000  Biso   1.000  H
  N3       1.0000 0.89922  0.85931  0.00000  Biso   1.000  N
  C69      1.0000 0.86502  0.77315  0.00000  Biso   1.000  C
  C70      1.0000 0.89200  0.47130  0.00000  Biso   1.000  C
  H67      1.0000 0.81790  0.45070  0.00000  Biso   1.000  H
  N4       1.0000 0.39922  0.35931  0.50000  Biso   1.000  N
  C71      1.0000 0.36502  0.27315  0.50000  Biso   1.000  C
  C72      1.0000 0.39200  0.97130  0.50000  Biso   1.000  C
  H68      1.0000 0.31790  0.95070  0.50000  Biso   1.000  H
  N5       1.0000 0.85931  0.10078  0.00000  Biso   1.000  N
  C73      1.0000 0.77315  0.13498  0.00000  Biso   1.000  C
  C74      1.0000 0.47130  0.10800  0.00000  Biso   1.000  C
  H69      1.0000 0.45070  0.18210  0.00000  Biso   1.000  H
  N6       1.0000 0.35931  0.60078  0.50000  Biso   1.000  N
  C75      1.0000 0.27315  0.63498  0.50000  Biso   1.000  C
  C76      1.0000 0.97130  0.60800  0.50000  Biso   1.000  C
  H70      1.0000 0.95070  0.68210  0.50000  Biso   1.000  H
  N7       1.0000 0.14069  0.89922  0.00000  Biso   1.000  N
  C77      1.0000 0.22685  0.86502  0.00000  Biso   1.000  C
  C78      1.0000 0.52870  0.89200  0.00000  Biso   1.000  C
  H71      1.0000 0.54930  0.81790  0.00000  Biso   1.000  H
  N8       1.0000 0.64069  0.39922  0.50000  Biso   1.000  N
  C79      1.0000 0.72685  0.36502  0.50000  Biso   1.000  C
  C80      1.0000 0.02870  0.39200  0.50000  Biso   1.000  C
  H72      1.0000 0.04930  0.31790  0.50000  Biso   1.000  H
  N9       1.0000 0.89922  0.14069  0.50000  Biso   1.000  N
  C81      1.0000 0.86502  0.22685  0.50000  Biso   1.000  C
  C82      1.0000 0.89200  0.52870  0.50000  Biso   1.000  C
  H73      1.0000 0.81790  0.54930  0.50000  Biso   1.000  H
  N10      1.0000 0.39922  0.64069  0.00000  Biso   1.000  N
  C83      1.0000 0.36502  0.72685  0.00000  Biso   1.000  C
  C84      1.0000 0.39200  0.02870  0.00000  Biso   1.000  C
  H74      1.0000 0.31790  0.04930  0.00000  Biso   1.000  H
  N11      1.0000 0.10078  0.85931  0.50000  Biso   1.000  N
  C85      1.0000 0.13498  0.77315  0.50000  Biso   1.000  C
  C86      1.0000 0.10800  0.47130  0.50000  Biso   1.000  C
  H75      1.0000 0.18210  0.45070  0.50000  Biso   1.000  H
  N12      1.0000 0.60078  0.35931  0.00000  Biso   1.000  N
  C87      1.0000 0.63498  0.27315  0.00000  Biso   1.000  C
  C88      1.0000 0.60800  0.97130  0.00000  Biso   1.000  C
  H76      1.0000 0.68210  0.95070  0.00000  Biso   1.000  H
  N13      1.0000 0.14069  0.10078  0.50000  Biso   1.000  N
  C89      1.0000 0.22685  0.13498  0.50000  Biso   1.000  C
  C90      1.0000 0.52870  0.10800  0.50000  Biso   1.000  C
  H77      1.0000 0.54930  0.18210  0.50000  Biso   1.000  H
  N14      1.0000 0.64069  0.60078  0.00000  Biso   1.000  N
  C91      1.0000 0.72685  0.63498  0.00000  Biso   1.000  C
  C92      1.0000 0.02870  0.60800  0.00000  Biso   1.000  C
  H78      1.0000 0.04930  0.68210  0.00000  Biso   1.000  H
  N15      1.0000 0.85931  0.89922  0.50000  Biso   1.000  N
  C93      1.0000 0.77315  0.86502  0.50000  Biso   1.000  C
  C94      1.0000 0.47130  0.89200  0.50000  Biso   1.000  C
  H79      1.0000 0.45070  0.81790  0.50000  Biso   1.000  H
  N16      1.0000 0.35931  0.39922  0.00000  Biso   1.000  N
  C95      1.0000 0.27315  0.36502  0.00000  Biso   1.000  C
  C96      1.0000 0.97130  0.39200  0.00000  Biso   1.000  C
  H80      1.0000 0.95070  0.31790  0.00000  Biso   1.000  H
  N17      1.0000 0.00000  0.00000  0.09559  Biso   1.000  N
  C97      1.0000 0.00000  0.00000  0.21780  Biso   1.000  C
  N18      1.0000 0.50000  0.50000  0.59559  Biso   1.000  N
  C98      1.0000 0.50000  0.50000  0.71780  Biso   1.000  C
  N19      1.0000 0.00000  0.00000  0.40441  Biso   1.000  N
  C99      1.0000 0.00000  0.00000  0.28220  Biso   1.000  C
  N20      1.0000 0.50000  0.50000  0.90441  Biso   1.000  N
  C100     1.0000 0.50000  0.50000  0.78220  Biso   1.000  C
  N21      1.0000 0.00000  0.00000  0.90441  Biso   1.000  N
  C101     1.0000 0.00000  0.00000  0.78220  Biso   1.000  C
  N22      1.0000 0.50000  0.50000  0.40441  Biso   1.000  N
  C102     1.0000 0.50000  0.50000  0.28220  Biso   1.000  C
  N23      1.0000 0.00000  0.00000  0.59559  Biso   1.000  N
  C103     1.0000 0.00000  0.00000  0.71780  Biso   1.000  C
  N24      1.0000 0.50000  0.50000  0.09559  Biso   1.000  N
  C104     1.0000 0.50000  0.50000  0.21780  Biso   1.000  C
  C105     1.0000 0.16501  0.33499  0.00000  Biso   1.000  C
  C106     1.0000 0.08095  0.41905  0.00000  Biso   1.000  C
  C107     1.0000 0.83499  0.66501  0.00000  Biso   1.000  C
  C108     1.0000 0.91905  0.58095  0.00000  Biso   1.000  C
  C109     1.0000 0.33499  0.16501  0.50000  Biso   1.000  C
  C110     1.0000 0.41905  0.08095  0.50000  Biso   1.000  C
  C111     1.0000 0.66501  0.16501  0.00000  Biso   1.000  C
  C112     1.0000 0.58095  0.08095  0.00000  Biso   1.000  C
  C113     1.0000 0.33499  0.83499  0.00000  Biso   1.000  C
  C114     1.0000 0.41905  0.91905  0.00000  Biso   1.000  C
  C115     1.0000 0.83499  0.33499  0.50000  Biso   1.000  C
  C116     1.0000 0.91905  0.41905  0.50000  Biso   1.000  C
  C117     1.0000 0.16501  0.66501  0.50000  Biso   1.000  C
  C118     1.0000 0.08095  0.58095  0.50000  Biso   1.000  C
  C119     1.0000 0.66501  0.83499  0.50000  Biso   1.000  C
  C120     1.0000 0.58095  0.91905  0.50000  Biso   1.000  C
