data_image0
_cell_length_a       13.419
_cell_length_b       17.125
_cell_length_c       9.252
_cell_angle_alpha    90
_cell_angle_beta     112.79
_cell_angle_gamma    90

_symmetry_space_group_name_H-M    "P 1"
_symmetry_int_tables_number       1

loop_
  _symmetry_equiv_pos_as_xyz
  'x, y, z'

loop_
  _atom_site_label
  _atom_site_occupancy
  _atom_site_fract_x
  _atom_site_fract_y
  _atom_site_fract_z
  _atom_site_thermal_displace_type
  _atom_site_B_iso_or_equiv
  _atom_site_type_symbol
  V1       1.0000 0.03330  0.72930  0.54270  Biso   1.000  V
  P1       1.0000 0.07190  0.87400  0.32210  Biso   1.000  P
  P2       1.0000 0.37710  0.84420  0.69030  Biso   1.000  P
  O1       1.0000 0.17710  0.91800  0.39460  Biso   1.000  O
  O2       1.0000 0.05470  0.85230  0.15470  Biso   1.000  O
  O3       1.0000 0.06740  0.80460  0.41970  Biso   1.000  O
  O4       1.0000 0.33090  0.92260  0.70970  Biso   1.000  O
  O5       1.0000 0.06050  0.64630  0.41560  Biso   1.000  O
  O6       1.0000 0.03120  0.68120  0.14980  Biso   1.000  O
  O7       1.0000 0.08320  0.69350  0.15510  Biso   1.000  O
  O8       1.0000 0.15340  0.78610  0.97460  Biso   1.000  O
  O9       1.0000 0.12130  0.75940  0.97420  Biso   1.000  O
  V2       1.0000 0.53330  0.22930  0.54270  Biso   1.000  V
  P3       1.0000 0.57190  0.37400  0.32210  Biso   1.000  P
  P4       1.0000 0.87710  0.34420  0.69030  Biso   1.000  P
  O10      1.0000 0.67710  0.41800  0.39460  Biso   1.000  O
  O11      1.0000 0.55470  0.35230  0.15470  Biso   1.000  O
  O12      1.0000 0.56740  0.30460  0.41970  Biso   1.000  O
  O13      1.0000 0.83090  0.42260  0.70970  Biso   1.000  O
  O14      1.0000 0.56050  0.14630  0.41560  Biso   1.000  O
  O15      1.0000 0.53120  0.18120  0.14980  Biso   1.000  O
  O16      1.0000 0.58320  0.19350  0.15510  Biso   1.000  O
  O17      1.0000 0.65340  0.28610  0.97460  Biso   1.000  O
  O18      1.0000 0.62130  0.25940  0.97420  Biso   1.000  O
  V3       1.0000 0.96670  0.72930  0.45730  Biso   1.000  V
  P5       1.0000 0.92810  0.87400  0.67790  Biso   1.000  P
  P6       1.0000 0.62290  0.84420  0.30970  Biso   1.000  P
  O19      1.0000 0.82290  0.91800  0.60540  Biso   1.000  O
  O20      1.0000 0.94530  0.85230  0.84530  Biso   1.000  O
  O21      1.0000 0.93260  0.80460  0.58030  Biso   1.000  O
  O22      1.0000 0.66910  0.92260  0.29030  Biso   1.000  O
  O23      1.0000 0.93950  0.64630  0.58440  Biso   1.000  O
  O24      1.0000 0.96880  0.68120  0.85020  Biso   1.000  O
  O25      1.0000 0.91680  0.69350  0.84490  Biso   1.000  O
  O26      1.0000 0.84660  0.78610  0.02540  Biso   1.000  O
  O27      1.0000 0.87870  0.75940  0.02580  Biso   1.000  O
  V4       1.0000 0.46670  0.22930  0.45730  Biso   1.000  V
  P7       1.0000 0.42810  0.37400  0.67790  Biso   1.000  P
  P8       1.0000 0.12290  0.34420  0.30970  Biso   1.000  P
  O28      1.0000 0.32290  0.41800  0.60540  Biso   1.000  O
  O29      1.0000 0.44530  0.35230  0.84530  Biso   1.000  O
  O30      1.0000 0.43260  0.30460  0.58030  Biso   1.000  O
  O31      1.0000 0.16910  0.42260  0.29030  Biso   1.000  O
  O32      1.0000 0.43950  0.14630  0.58440  Biso   1.000  O
  O33      1.0000 0.46880  0.18120  0.85020  Biso   1.000  O
  O34      1.0000 0.41680  0.19350  0.84490  Biso   1.000  O
  O35      1.0000 0.34660  0.28610  0.02540  Biso   1.000  O
  O36      1.0000 0.37870  0.25940  0.02580  Biso   1.000  O
  V5       1.0000 0.96670  0.27070  0.45730  Biso   1.000  V
  P9       1.0000 0.92810  0.12600  0.67790  Biso   1.000  P
  P10      1.0000 0.62290  0.15580  0.30970  Biso   1.000  P
  O37      1.0000 0.82290  0.08200  0.60540  Biso   1.000  O
  O38      1.0000 0.94530  0.14770  0.84530  Biso   1.000  O
  O39      1.0000 0.93260  0.19540  0.58030  Biso   1.000  O
  O40      1.0000 0.66910  0.07740  0.29030  Biso   1.000  O
  O41      1.0000 0.93950  0.35370  0.58440  Biso   1.000  O
  O42      1.0000 0.96880  0.31880  0.85020  Biso   1.000  O
  O43      1.0000 0.91680  0.30650  0.84490  Biso   1.000  O
  O44      1.0000 0.84660  0.21390  0.02540  Biso   1.000  O
  O45      1.0000 0.87870  0.24060  0.02580  Biso   1.000  O
  V6       1.0000 0.46670  0.77070  0.45730  Biso   1.000  V
  P11      1.0000 0.42810  0.62600  0.67790  Biso   1.000  P
  P12      1.0000 0.12290  0.65580  0.30970  Biso   1.000  P
  O46      1.0000 0.32290  0.58200  0.60540  Biso   1.000  O
  O47      1.0000 0.44530  0.64770  0.84530  Biso   1.000  O
  O48      1.0000 0.43260  0.69540  0.58030  Biso   1.000  O
  O49      1.0000 0.16910  0.57740  0.29030  Biso   1.000  O
  O50      1.0000 0.43950  0.85370  0.58440  Biso   1.000  O
  O51      1.0000 0.46880  0.81880  0.85020  Biso   1.000  O
  O52      1.0000 0.41680  0.80650  0.84490  Biso   1.000  O
  O53      1.0000 0.34660  0.71390  0.02540  Biso   1.000  O
  O54      1.0000 0.37870  0.74060  0.02580  Biso   1.000  O
  V7       1.0000 0.03330  0.27070  0.54270  Biso   1.000  V
  P13      1.0000 0.07190  0.12600  0.32210  Biso   1.000  P
  P14      1.0000 0.37710  0.15580  0.69030  Biso   1.000  P
  O55      1.0000 0.17710  0.08200  0.39460  Biso   1.000  O
  O56      1.0000 0.05470  0.14770  0.15470  Biso   1.000  O
  O57      1.0000 0.06740  0.19540  0.41970  Biso   1.000  O
  O58      1.0000 0.33090  0.07740  0.70970  Biso   1.000  O
  O59      1.0000 0.06050  0.35370  0.41560  Biso   1.000  O
  O60      1.0000 0.03120  0.31880  0.14980  Biso   1.000  O
  O61      1.0000 0.08320  0.30650  0.15510  Biso   1.000  O
  O62      1.0000 0.15340  0.21390  0.97460  Biso   1.000  O
  O63      1.0000 0.12130  0.24060  0.97420  Biso   1.000  O
  V8       1.0000 0.53330  0.77070  0.54270  Biso   1.000  V
  P15      1.0000 0.57190  0.62600  0.32210  Biso   1.000  P
  P16      1.0000 0.87710  0.65580  0.69030  Biso   1.000  P
  O64      1.0000 0.67710  0.58200  0.39460  Biso   1.000  O
  O65      1.0000 0.55470  0.64770  0.15470  Biso   1.000  O
  O66      1.0000 0.56740  0.69540  0.41970  Biso   1.000  O
  O67      1.0000 0.83090  0.57740  0.70970  Biso   1.000  O
  O68      1.0000 0.56050  0.85370  0.41560  Biso   1.000  O
  O69      1.0000 0.53120  0.81880  0.14980  Biso   1.000  O
  O70      1.0000 0.58320  0.80650  0.15510  Biso   1.000  O
  O71      1.0000 0.65340  0.71390  0.97460  Biso   1.000  O
  O72      1.0000 0.62130  0.74060  0.97420  Biso   1.000  O
  V9       1.0000 0.23000  0.00000  0.56120  Biso   1.000  V
  V10      1.0000 0.73000  0.50000  0.56120  Biso   1.000  V
  V11      1.0000 0.77000  0.00000  0.43880  Biso   1.000  V
  V12      1.0000 0.27000  0.50000  0.43880  Biso   1.000  V
  V13      1.0000 0.00000  0.76890  0.00000  Biso   1.000  V
  V14      1.0000 0.50000  0.26890  0.00000  Biso   1.000  V
  V15      1.0000 0.00000  0.23110  0.00000  Biso   1.000  V
  V16      1.0000 0.50000  0.73110  0.00000  Biso   1.000  V
